*
* Deltares, Delft3D-QUICKIN Version 4.17.06.10712, Mar  5 2010, 11:34:40
* File creation date: 2010-03-25, 14:05:40
*
* Coordinate System = Cartesian
*
Breakwater
     7      2
  1.9183224E+05   6.0962933E+05
  1.9200722E+05   6.1044174E+05
  1.9249467E+05   6.1132914E+05
  1.9329458E+05   6.1217905E+05
  1.9426948E+05   6.1294147E+05
  1.9541936E+05   6.1347892E+05
  1.9663173E+05   6.1385388E+05
*
* L002
*
ThinDam_1
     2      2
  2.0846027E+05   6.0775813E+05
  2.0838541E+05   6.0968969E+05
*
* L003 
*
ThinDam_2
     2      2
  2.1022713E+05   6.0998913E+05
  2.1031695E+05   6.0765331E+05
