*
* WL | Delft Hydraulics, Delft3D-RGFGRID, Version 4.13.01.02; Sep 2005
* File creation date: 10:05:37, 26-10-2005
*
Coordinate System = Cartesian
      66      75
 0 0 0
 ETA=    1   7.00000000000000000E+02   7.10000000000000000E+02   7.20000000000000000E+02   7.30000000000000000E+02   7.40000000000000000E+02
             7.50000000000000000E+02   7.60000000000000000E+02   7.70000000000000000E+02   7.80000000000000000E+02   7.90000000000000000E+02
             8.00000000000000000E+02   8.10000000000000000E+02   8.20000000000000000E+02   8.30000000000000000E+02   8.40000000000000000E+02
             8.50000000000000000E+02   8.60000000000000000E+02   8.70000000000000000E+02   8.80000000000000000E+02   8.90000000000000000E+02
             9.00000000000000000E+02   9.10000000000000000E+02   9.20000000000000000E+02   9.30000000000000000E+02   9.40000000000000000E+02
             9.50000000000000000E+02   9.60000000000000000E+02   9.70000000000000000E+02   9.80000000000000000E+02   9.90000000000000000E+02
             1.00000000000000000E+03   1.01000000000000000E+03   1.02000000000000000E+03   1.03000000000000000E+03   1.04000000000000000E+03
             1.05000000000000000E+03   1.06000000000000000E+03   1.07000000000000000E+03   1.08000000000000000E+03   1.09000000000000000E+03
             1.10000000000000000E+03   1.11000000000000000E+03   1.12000000000000000E+03   1.13000000000000000E+03   1.14000000000000000E+03
             1.15000000000000000E+03   1.16000000000000000E+03   1.17000000000000000E+03   1.18000000000000000E+03   1.19000000000000000E+03
             1.20000000000000000E+03   1.21000000000000000E+03   1.22000000000000000E+03   1.23000000000000000E+03   1.24000000000000000E+03
             1.25000000000000000E+03   1.26000000000000000E+03   1.27000000000000000E+03   1.28000000000000000E+03   1.29000000000000000E+03
             1.30000000000000000E+03   1.31000000000000000E+03   1.32000000000000000E+03   1.33000000000000000E+03   1.34000000000000000E+03
             1.35000000000000000E+03
 ETA=    2   7.00000000000000000E+02   7.10000000000000000E+02   7.20000000000000000E+02   7.30000000000000000E+02   7.40000000000000000E+02
             7.50000000000000000E+02   7.60000000000000000E+02   7.70000000000000000E+02   7.80000000000000000E+02   7.90000000000000000E+02
             8.00000000000000000E+02   8.10000000000000000E+02   8.20000000000000000E+02   8.30000000000000000E+02   8.40000000000000000E+02
             8.50000000000000000E+02   8.60000000000000000E+02   8.70000000000000000E+02   8.80000000000000000E+02   8.90000000000000000E+02
             9.00000000000000000E+02   9.10000000000000000E+02   9.20000000000000000E+02   9.30000000000000000E+02   9.40000000000000000E+02
             9.50000000000000000E+02   9.60000000000000000E+02   9.70000000000000000E+02   9.80000000000000000E+02   9.90000000000000000E+02
             1.00000000000000000E+03   1.01000000000000000E+03   1.02000000000000000E+03   1.03000000000000000E+03   1.04000000000000000E+03
             1.05000000000000000E+03   1.06000000000000000E+03   1.07000000000000000E+03   1.08000000000000000E+03   1.09000000000000000E+03
             1.10000000000000000E+03   1.11000000000000000E+03   1.12000000000000000E+03   1.13000000000000000E+03   1.14000000000000000E+03
             1.15000000000000000E+03   1.16000000000000000E+03   1.17000000000000000E+03   1.18000000000000000E+03   1.19000000000000000E+03
             1.20000000000000000E+03   1.21000000000000000E+03   1.22000000000000000E+03   1.23000000000000000E+03   1.24000000000000000E+03
             1.25000000000000000E+03   1.26000000000000000E+03   1.27000000000000000E+03   1.28000000000000000E+03   1.29000000000000000E+03
             1.30000000000000000E+03   1.31000000000000000E+03   1.32000000000000000E+03   1.33000000000000000E+03   1.34000000000000000E+03
             1.35000000000000000E+03
 ETA=    3   7.00000000000000000E+02   7.10000000000000000E+02   7.20000000000000000E+02   7.30000000000000000E+02   7.40000000000000000E+02
             7.50000000000000000E+02   7.60000000000000000E+02   7.70000000000000000E+02   7.80000000000000000E+02   7.90000000000000000E+02
             8.00000000000000000E+02   8.10000000000000000E+02   8.20000000000000000E+02   8.30000000000000000E+02   8.40000000000000000E+02
             8.50000000000000000E+02   8.60000000000000000E+02   8.70000000000000000E+02   8.80000000000000000E+02   8.90000000000000000E+02
             9.00000000000000000E+02   9.10000000000000000E+02   9.20000000000000000E+02   9.30000000000000000E+02   9.40000000000000000E+02
             9.50000000000000000E+02   9.60000000000000000E+02   9.70000000000000000E+02   9.80000000000000000E+02   9.90000000000000000E+02
             1.00000000000000000E+03   1.01000000000000000E+03   1.02000000000000000E+03   1.03000000000000000E+03   1.04000000000000000E+03
             1.05000000000000000E+03   1.06000000000000000E+03   1.07000000000000000E+03   1.08000000000000000E+03   1.09000000000000000E+03
             1.10000000000000000E+03   1.11000000000000000E+03   1.12000000000000000E+03   1.13000000000000000E+03   1.14000000000000000E+03
             1.15000000000000000E+03   1.16000000000000000E+03   1.17000000000000000E+03   1.18000000000000000E+03   1.19000000000000000E+03
             1.20000000000000000E+03   1.21000000000000000E+03   1.22000000000000000E+03   1.23000000000000000E+03   1.24000000000000000E+03
             1.25000000000000000E+03   1.26000000000000000E+03   1.27000000000000000E+03   1.28000000000000000E+03   1.29000000000000000E+03
             1.30000000000000000E+03   1.31000000000000000E+03   1.32000000000000000E+03   1.33000000000000000E+03   1.34000000000000000E+03
             1.35000000000000000E+03
 ETA=    4   7.00000000000000000E+02   7.10000000000000000E+02   7.20000000000000000E+02   7.30000000000000000E+02   7.40000000000000000E+02
             7.50000000000000000E+02   7.60000000000000000E+02   7.70000000000000000E+02   7.80000000000000000E+02   7.90000000000000000E+02
             8.00000000000000000E+02   8.10000000000000000E+02   8.20000000000000000E+02   8.30000000000000000E+02   8.40000000000000000E+02
             8.50000000000000000E+02   8.60000000000000000E+02   8.70000000000000000E+02   8.80000000000000000E+02   8.90000000000000000E+02
             9.00000000000000000E+02   9.10000000000000000E+02   9.20000000000000000E+02   9.30000000000000000E+02   9.40000000000000000E+02
             9.50000000000000000E+02   9.60000000000000000E+02   9.70000000000000000E+02   9.80000000000000000E+02   9.90000000000000000E+02
             1.00000000000000000E+03   1.01000000000000000E+03   1.02000000000000000E+03   1.03000000000000000E+03   1.04000000000000000E+03
             1.05000000000000000E+03   1.06000000000000000E+03   1.07000000000000000E+03   1.08000000000000000E+03   1.09000000000000000E+03
             1.10000000000000000E+03   1.11000000000000000E+03   1.12000000000000000E+03   1.13000000000000000E+03   1.14000000000000000E+03
             1.15000000000000000E+03   1.16000000000000000E+03   1.17000000000000000E+03   1.18000000000000000E+03   1.19000000000000000E+03
             1.20000000000000000E+03   1.21000000000000000E+03   1.22000000000000000E+03   1.23000000000000000E+03   1.24000000000000000E+03
             1.25000000000000000E+03   1.26000000000000000E+03   1.27000000000000000E+03   1.28000000000000000E+03   1.29000000000000000E+03
             1.30000000000000000E+03   1.31000000000000000E+03   1.32000000000000000E+03   1.33000000000000000E+03   1.34000000000000000E+03
             1.35000000000000000E+03
 ETA=    5   7.00000000000000000E+02   7.10000000000000000E+02   7.20000000000000000E+02   7.30000000000000000E+02   7.40000000000000000E+02
             7.50000000000000000E+02   7.60000000000000000E+02   7.70000000000000000E+02   7.80000000000000000E+02   7.90000000000000000E+02
             8.00000000000000000E+02   8.10000000000000000E+02   8.20000000000000000E+02   8.30000000000000000E+02   8.40000000000000000E+02
             8.50000000000000000E+02   8.60000000000000000E+02   8.70000000000000000E+02   8.80000000000000000E+02   8.90000000000000000E+02
             9.00000000000000000E+02   9.10000000000000000E+02   9.20000000000000000E+02   9.30000000000000000E+02   9.40000000000000000E+02
             9.50000000000000000E+02   9.60000000000000000E+02   9.70000000000000000E+02   9.80000000000000000E+02   9.90000000000000000E+02
             1.00000000000000000E+03   1.01000000000000000E+03   1.02000000000000000E+03   1.03000000000000000E+03   1.04000000000000000E+03
             1.05000000000000000E+03   1.06000000000000000E+03   1.07000000000000000E+03   1.08000000000000000E+03   1.09000000000000000E+03
             1.10000000000000000E+03   1.11000000000000000E+03   1.12000000000000000E+03   1.13000000000000000E+03   1.14000000000000000E+03
             1.15000000000000000E+03   1.16000000000000000E+03   1.17000000000000000E+03   1.18000000000000000E+03   1.19000000000000000E+03
             1.20000000000000000E+03   1.21000000000000000E+03   1.22000000000000000E+03   1.23000000000000000E+03   1.24000000000000000E+03
             1.25000000000000000E+03   1.26000000000000000E+03   1.27000000000000000E+03   1.28000000000000000E+03   1.29000000000000000E+03
             1.30000000000000000E+03   1.31000000000000000E+03   1.32000000000000000E+03   1.33000000000000000E+03   1.34000000000000000E+03
             1.35000000000000000E+03
 ETA=    6   7.00000000000000000E+02   7.10000000000000000E+02   7.20000000000000000E+02   7.30000000000000000E+02   7.40000000000000000E+02
             7.50000000000000000E+02   7.60000000000000000E+02   7.70000000000000000E+02   7.80000000000000000E+02   7.90000000000000000E+02
             8.00000000000000000E+02   8.10000000000000000E+02   8.20000000000000000E+02   8.30000000000000000E+02   8.40000000000000000E+02
             8.50000000000000000E+02   8.60000000000000000E+02   8.70000000000000000E+02   8.80000000000000000E+02   8.90000000000000000E+02
             9.00000000000000000E+02   9.10000000000000000E+02   9.20000000000000000E+02   9.30000000000000000E+02   9.40000000000000000E+02
             9.50000000000000000E+02   9.60000000000000000E+02   9.70000000000000000E+02   9.80000000000000000E+02   9.90000000000000000E+02
             1.00000000000000000E+03   1.01000000000000000E+03   1.02000000000000000E+03   1.03000000000000000E+03   1.04000000000000000E+03
             1.05000000000000000E+03   1.06000000000000000E+03   1.07000000000000000E+03   1.08000000000000000E+03   1.09000000000000000E+03
             1.10000000000000000E+03   1.11000000000000000E+03   1.12000000000000000E+03   1.13000000000000000E+03   1.14000000000000000E+03
             1.15000000000000000E+03   1.16000000000000000E+03   1.17000000000000000E+03   1.18000000000000000E+03   1.19000000000000000E+03
             1.20000000000000000E+03   1.21000000000000000E+03   1.22000000000000000E+03   1.23000000000000000E+03   1.24000000000000000E+03
             1.25000000000000000E+03   1.26000000000000000E+03   1.27000000000000000E+03   1.28000000000000000E+03   1.29000000000000000E+03
             1.30000000000000000E+03   1.31000000000000000E+03   1.32000000000000000E+03   1.33000000000000000E+03   1.34000000000000000E+03
             1.35000000000000000E+03
 ETA=    7   7.00000000000000000E+02   7.10000000000000000E+02   7.20000000000000000E+02   7.30000000000000000E+02   7.40000000000000000E+02
             7.50000000000000000E+02   7.60000000000000000E+02   7.70000000000000000E+02   7.80000000000000000E+02   7.90000000000000000E+02
             8.00000000000000000E+02   8.10000000000000000E+02   8.20000000000000000E+02   8.30000000000000000E+02   8.40000000000000000E+02
             8.50000000000000000E+02   8.60000000000000000E+02   8.70000000000000000E+02   8.80000000000000000E+02   8.90000000000000000E+02
             9.00000000000000000E+02   9.10000000000000000E+02   9.20000000000000000E+02   9.30000000000000000E+02   9.40000000000000000E+02
             9.50000000000000000E+02   9.60000000000000000E+02   9.70000000000000000E+02   9.80000000000000000E+02   9.90000000000000000E+02
             1.00000000000000000E+03   1.01000000000000000E+03   1.02000000000000000E+03   1.03000000000000000E+03   1.04000000000000000E+03
             1.05000000000000000E+03   1.06000000000000000E+03   1.07000000000000000E+03   1.08000000000000000E+03   1.09000000000000000E+03
             1.10000000000000000E+03   1.11000000000000000E+03   1.12000000000000000E+03   1.13000000000000000E+03   1.14000000000000000E+03
             1.15000000000000000E+03   1.16000000000000000E+03   1.17000000000000000E+03   1.18000000000000000E+03   1.19000000000000000E+03
             1.20000000000000000E+03   1.21000000000000000E+03   1.22000000000000000E+03   1.23000000000000000E+03   1.24000000000000000E+03
             1.25000000000000000E+03   1.26000000000000000E+03   1.27000000000000000E+03   1.28000000000000000E+03   1.29000000000000000E+03
             1.30000000000000000E+03   1.31000000000000000E+03   1.32000000000000000E+03   1.33000000000000000E+03   1.34000000000000000E+03
             1.35000000000000000E+03
 ETA=    8   7.00000000000000000E+02   7.10000000000000000E+02   7.20000000000000000E+02   7.30000000000000000E+02   7.40000000000000000E+02
             7.50000000000000000E+02   7.60000000000000000E+02   7.70000000000000000E+02   7.80000000000000000E+02   7.90000000000000000E+02
             8.00000000000000000E+02   8.10000000000000000E+02   8.20000000000000000E+02   8.30000000000000000E+02   8.40000000000000000E+02
             8.50000000000000000E+02   8.60000000000000000E+02   8.70000000000000000E+02   8.80000000000000000E+02   8.90000000000000000E+02
             9.00000000000000000E+02   9.10000000000000000E+02   9.20000000000000000E+02   9.30000000000000000E+02   9.40000000000000000E+02
             9.50000000000000000E+02   9.60000000000000000E+02   9.70000000000000000E+02   9.80000000000000000E+02   9.90000000000000000E+02
             1.00000000000000000E+03   1.01000000000000000E+03   1.02000000000000000E+03   1.03000000000000000E+03   1.04000000000000000E+03
             1.05000000000000000E+03   1.06000000000000000E+03   1.07000000000000000E+03   1.08000000000000000E+03   1.09000000000000000E+03
             1.10000000000000000E+03   1.11000000000000000E+03   1.12000000000000000E+03   1.13000000000000000E+03   1.14000000000000000E+03
             1.15000000000000000E+03   1.16000000000000000E+03   1.17000000000000000E+03   1.18000000000000000E+03   1.19000000000000000E+03
             1.20000000000000000E+03   1.21000000000000000E+03   1.22000000000000000E+03   1.23000000000000000E+03   1.24000000000000000E+03
             1.25000000000000000E+03   1.26000000000000000E+03   1.27000000000000000E+03   1.28000000000000000E+03   1.29000000000000000E+03
             1.30000000000000000E+03   1.31000000000000000E+03   1.32000000000000000E+03   1.33000000000000000E+03   1.34000000000000000E+03
             1.35000000000000000E+03
 ETA=    9   7.00000000000000000E+02   7.10000000000000000E+02   7.20000000000000000E+02   7.30000000000000000E+02   7.40000000000000000E+02
             7.50000000000000000E+02   7.60000000000000000E+02   7.70000000000000000E+02   7.80000000000000000E+02   7.90000000000000000E+02
             8.00000000000000000E+02   8.10000000000000000E+02   8.20000000000000000E+02   8.30000000000000000E+02   8.40000000000000000E+02
             8.50000000000000000E+02   8.60000000000000000E+02   8.70000000000000000E+02   8.80000000000000000E+02   8.90000000000000000E+02
             9.00000000000000000E+02   9.10000000000000000E+02   9.20000000000000000E+02   9.30000000000000000E+02   9.40000000000000000E+02
             9.50000000000000000E+02   9.60000000000000000E+02   9.70000000000000000E+02   9.80000000000000000E+02   9.90000000000000000E+02
             1.00000000000000000E+03   1.01000000000000000E+03   1.02000000000000000E+03   1.03000000000000000E+03   1.04000000000000000E+03
             1.05000000000000000E+03   1.06000000000000000E+03   1.07000000000000000E+03   1.08000000000000000E+03   1.09000000000000000E+03
             1.10000000000000000E+03   1.11000000000000000E+03   1.12000000000000000E+03   1.13000000000000000E+03   1.14000000000000000E+03
             1.15000000000000000E+03   1.16000000000000000E+03   1.17000000000000000E+03   1.18000000000000000E+03   1.19000000000000000E+03
             1.20000000000000000E+03   1.21000000000000000E+03   1.22000000000000000E+03   1.23000000000000000E+03   1.24000000000000000E+03
             1.25000000000000000E+03   1.26000000000000000E+03   1.27000000000000000E+03   1.28000000000000000E+03   1.29000000000000000E+03
             1.30000000000000000E+03   1.31000000000000000E+03   1.32000000000000000E+03   1.33000000000000000E+03   1.34000000000000000E+03
             1.35000000000000000E+03
 ETA=   10   7.00000000000000000E+02   7.10000000000000000E+02   7.20000000000000000E+02   7.30000000000000000E+02   7.40000000000000000E+02
             7.50000000000000000E+02   7.60000000000000000E+02   7.70000000000000000E+02   7.80000000000000000E+02   7.90000000000000000E+02
             8.00000000000000000E+02   8.10000000000000000E+02   8.20000000000000000E+02   8.30000000000000000E+02   8.40000000000000000E+02
             8.50000000000000000E+02   8.60000000000000000E+02   8.70000000000000000E+02   8.80000000000000000E+02   8.90000000000000000E+02
             9.00000000000000000E+02   9.10000000000000000E+02   9.20000000000000000E+02   9.30000000000000000E+02   9.40000000000000000E+02
             9.50000000000000000E+02   9.60000000000000000E+02   9.70000000000000000E+02   9.80000000000000000E+02   9.90000000000000000E+02
             1.00000000000000000E+03   1.01000000000000000E+03   1.02000000000000000E+03   1.03000000000000000E+03   1.04000000000000000E+03
             1.05000000000000000E+03   1.06000000000000000E+03   1.07000000000000000E+03   1.08000000000000000E+03   1.09000000000000000E+03
             1.10000000000000000E+03   1.11000000000000000E+03   1.12000000000000000E+03   1.13000000000000000E+03   1.14000000000000000E+03
             1.15000000000000000E+03   1.16000000000000000E+03   1.17000000000000000E+03   1.18000000000000000E+03   1.19000000000000000E+03
             1.20000000000000000E+03   1.21000000000000000E+03   1.22000000000000000E+03   1.23000000000000000E+03   1.24000000000000000E+03
             1.25000000000000000E+03   1.26000000000000000E+03   1.27000000000000000E+03   1.28000000000000000E+03   1.29000000000000000E+03
             1.30000000000000000E+03   1.31000000000000000E+03   1.32000000000000000E+03   1.33000000000000000E+03   1.34000000000000000E+03
             1.35000000000000000E+03
 ETA=   11   7.00000000000000000E+02   7.10000000000000000E+02   7.20000000000000000E+02   7.30000000000000000E+02   7.40000000000000000E+02
             7.50000000000000000E+02   7.60000000000000000E+02   7.70000000000000000E+02   7.80000000000000000E+02   7.90000000000000000E+02
             8.00000000000000000E+02   8.10000000000000000E+02   8.20000000000000000E+02   8.30000000000000000E+02   8.40000000000000000E+02
             8.50000000000000000E+02   8.60000000000000000E+02   8.70000000000000000E+02   8.80000000000000000E+02   8.90000000000000000E+02
             9.00000000000000000E+02   9.10000000000000000E+02   9.20000000000000000E+02   9.30000000000000000E+02   9.40000000000000000E+02
             9.50000000000000000E+02   9.60000000000000000E+02   9.70000000000000000E+02   9.80000000000000000E+02   9.90000000000000000E+02
             1.00000000000000000E+03   1.01000000000000000E+03   1.02000000000000000E+03   1.03000000000000000E+03   1.04000000000000000E+03
             1.05000000000000000E+03   1.06000000000000000E+03   1.07000000000000000E+03   1.08000000000000000E+03   1.09000000000000000E+03
             1.10000000000000000E+03   1.11000000000000000E+03   1.12000000000000000E+03   1.13000000000000000E+03   1.14000000000000000E+03
             1.15000000000000000E+03   1.16000000000000000E+03   1.17000000000000000E+03   1.18000000000000000E+03   1.19000000000000000E+03
             1.20000000000000000E+03   1.21000000000000000E+03   1.22000000000000000E+03   1.23000000000000000E+03   1.24000000000000000E+03
             1.25000000000000000E+03   1.26000000000000000E+03   1.27000000000000000E+03   1.28000000000000000E+03   1.29000000000000000E+03
             1.30000000000000000E+03   1.31000000000000000E+03   1.32000000000000000E+03   1.33000000000000000E+03   1.34000000000000000E+03
             1.35000000000000000E+03
 ETA=   12   7.00000000000000000E+02   7.10000000000000000E+02   7.20000000000000000E+02   7.30000000000000000E+02   7.40000000000000000E+02
             7.50000000000000000E+02   7.60000000000000000E+02   7.70000000000000000E+02   7.80000000000000000E+02   7.90000000000000000E+02
             8.00000000000000000E+02   8.10000000000000000E+02   8.20000000000000000E+02   8.30000000000000000E+02   8.40000000000000000E+02
             8.50000000000000000E+02   8.60000000000000000E+02   8.70000000000000000E+02   8.80000000000000000E+02   8.90000000000000000E+02
             9.00000000000000000E+02   9.10000000000000000E+02   9.20000000000000000E+02   9.30000000000000000E+02   9.40000000000000000E+02
             9.50000000000000000E+02   9.60000000000000000E+02   9.70000000000000000E+02   9.80000000000000000E+02   9.90000000000000000E+02
             1.00000000000000000E+03   1.01000000000000000E+03   1.02000000000000000E+03   1.03000000000000000E+03   1.04000000000000000E+03
             1.05000000000000000E+03   1.06000000000000000E+03   1.07000000000000000E+03   1.08000000000000000E+03   1.09000000000000000E+03
             1.10000000000000000E+03   1.11000000000000000E+03   1.12000000000000000E+03   1.13000000000000000E+03   1.14000000000000000E+03
             1.15000000000000000E+03   1.16000000000000000E+03   1.17000000000000000E+03   1.18000000000000000E+03   1.19000000000000000E+03
             1.20000000000000000E+03   1.21000000000000000E+03   1.22000000000000000E+03   1.23000000000000000E+03   1.24000000000000000E+03
             1.25000000000000000E+03   1.26000000000000000E+03   1.27000000000000000E+03   1.28000000000000000E+03   1.29000000000000000E+03
             1.30000000000000000E+03   1.31000000000000000E+03   1.32000000000000000E+03   1.33000000000000000E+03   1.34000000000000000E+03
             1.35000000000000000E+03
 ETA=   13   7.00000000000000000E+02   7.10000000000000000E+02   7.20000000000000000E+02   7.30000000000000000E+02   7.40000000000000000E+02
             7.50000000000000000E+02   7.60000000000000000E+02   7.70000000000000000E+02   7.80000000000000000E+02   7.90000000000000000E+02
             8.00000000000000000E+02   8.10000000000000000E+02   8.20000000000000000E+02   8.30000000000000000E+02   8.40000000000000000E+02
             8.50000000000000000E+02   8.60000000000000000E+02   8.70000000000000000E+02   8.80000000000000000E+02   8.90000000000000000E+02
             9.00000000000000000E+02   9.10000000000000000E+02   9.20000000000000000E+02   9.30000000000000000E+02   9.40000000000000000E+02
             9.50000000000000000E+02   9.60000000000000000E+02   9.70000000000000000E+02   9.80000000000000000E+02   9.90000000000000000E+02
             1.00000000000000000E+03   1.01000000000000000E+03   1.02000000000000000E+03   1.03000000000000000E+03   1.04000000000000000E+03
             1.05000000000000000E+03   1.06000000000000000E+03   1.07000000000000000E+03   1.08000000000000000E+03   1.09000000000000000E+03
             1.10000000000000000E+03   1.11000000000000000E+03   1.12000000000000000E+03   1.13000000000000000E+03   1.14000000000000000E+03
             1.15000000000000000E+03   1.16000000000000000E+03   1.17000000000000000E+03   1.18000000000000000E+03   1.19000000000000000E+03
             1.20000000000000000E+03   1.21000000000000000E+03   1.22000000000000000E+03   1.23000000000000000E+03   1.24000000000000000E+03
             1.25000000000000000E+03   1.26000000000000000E+03   1.27000000000000000E+03   1.28000000000000000E+03   1.29000000000000000E+03
             1.30000000000000000E+03   1.31000000000000000E+03   1.32000000000000000E+03   1.33000000000000000E+03   1.34000000000000000E+03
             1.35000000000000000E+03
 ETA=   14   7.00000000000000000E+02   7.10000000000000000E+02   7.20000000000000000E+02   7.30000000000000000E+02   7.40000000000000000E+02
             7.50000000000000000E+02   7.60000000000000000E+02   7.70000000000000000E+02   7.80000000000000000E+02   7.90000000000000000E+02
             8.00000000000000000E+02   8.10000000000000000E+02   8.20000000000000000E+02   8.30000000000000000E+02   8.40000000000000000E+02
             8.50000000000000000E+02   8.60000000000000000E+02   8.70000000000000000E+02   8.80000000000000000E+02   8.90000000000000000E+02
             9.00000000000000000E+02   9.10000000000000000E+02   9.20000000000000000E+02   9.30000000000000000E+02   9.40000000000000000E+02
             9.50000000000000000E+02   9.60000000000000000E+02   9.70000000000000000E+02   9.80000000000000000E+02   9.90000000000000000E+02
             1.00000000000000000E+03   1.01000000000000000E+03   1.02000000000000000E+03   1.03000000000000000E+03   1.04000000000000000E+03
             1.05000000000000000E+03   1.06000000000000000E+03   1.07000000000000000E+03   1.08000000000000000E+03   1.09000000000000000E+03
             1.10000000000000000E+03   1.11000000000000000E+03   1.12000000000000000E+03   1.13000000000000000E+03   1.14000000000000000E+03
             1.15000000000000000E+03   1.16000000000000000E+03   1.17000000000000000E+03   1.18000000000000000E+03   1.19000000000000000E+03
             1.20000000000000000E+03   1.21000000000000000E+03   1.22000000000000000E+03   1.23000000000000000E+03   1.24000000000000000E+03
             1.25000000000000000E+03   1.26000000000000000E+03   1.27000000000000000E+03   1.28000000000000000E+03   1.29000000000000000E+03
             1.30000000000000000E+03   1.31000000000000000E+03   1.32000000000000000E+03   1.33000000000000000E+03   1.34000000000000000E+03
             1.35000000000000000E+03
 ETA=   15   7.00000000000000000E+02   7.10000000000000000E+02   7.20000000000000000E+02   7.30000000000000000E+02   7.40000000000000000E+02
             7.50000000000000000E+02   7.60000000000000000E+02   7.70000000000000000E+02   7.80000000000000000E+02   7.90000000000000000E+02
             8.00000000000000000E+02   8.10000000000000000E+02   8.20000000000000000E+02   8.30000000000000000E+02   8.40000000000000000E+02
             8.50000000000000000E+02   8.60000000000000000E+02   8.70000000000000000E+02   8.80000000000000000E+02   8.90000000000000000E+02
             9.00000000000000000E+02   9.10000000000000000E+02   9.20000000000000000E+02   9.30000000000000000E+02   9.40000000000000000E+02
             9.50000000000000000E+02   9.60000000000000000E+02   9.70000000000000000E+02   9.80000000000000000E+02   9.90000000000000000E+02
             1.00000000000000000E+03   1.01000000000000000E+03   1.02000000000000000E+03   1.03000000000000000E+03   1.04000000000000000E+03
             1.05000000000000000E+03   1.06000000000000000E+03   1.07000000000000000E+03   1.08000000000000000E+03   1.09000000000000000E+03
             1.10000000000000000E+03   1.11000000000000000E+03   1.12000000000000000E+03   1.13000000000000000E+03   1.14000000000000000E+03
             1.15000000000000000E+03   1.16000000000000000E+03   1.17000000000000000E+03   1.18000000000000000E+03   1.19000000000000000E+03
             1.20000000000000000E+03   1.21000000000000000E+03   1.22000000000000000E+03   1.23000000000000000E+03   1.24000000000000000E+03
             1.25000000000000000E+03   1.26000000000000000E+03   1.27000000000000000E+03   1.28000000000000000E+03   1.29000000000000000E+03
             1.30000000000000000E+03   1.31000000000000000E+03   1.32000000000000000E+03   1.33000000000000000E+03   1.34000000000000000E+03
             1.35000000000000000E+03
 ETA=   16   7.00000000000000000E+02   7.10000000000000000E+02   7.20000000000000000E+02   7.30000000000000000E+02   7.40000000000000000E+02
             7.50000000000000000E+02   7.60000000000000000E+02   7.70000000000000000E+02   7.80000000000000000E+02   7.90000000000000000E+02
             8.00000000000000000E+02   8.10000000000000000E+02   8.20000000000000000E+02   8.30000000000000000E+02   8.40000000000000000E+02
             8.50000000000000000E+02   8.60000000000000000E+02   8.70000000000000000E+02   8.80000000000000000E+02   8.90000000000000000E+02
             9.00000000000000000E+02   9.10000000000000000E+02   9.20000000000000000E+02   9.30000000000000000E+02   9.40000000000000000E+02
             9.50000000000000000E+02   9.60000000000000000E+02   9.70000000000000000E+02   9.80000000000000000E+02   9.90000000000000000E+02
             1.00000000000000000E+03   1.01000000000000000E+03   1.02000000000000000E+03   1.03000000000000000E+03   1.04000000000000000E+03
             1.05000000000000000E+03   1.06000000000000000E+03   1.07000000000000000E+03   1.08000000000000000E+03   1.09000000000000000E+03
             1.10000000000000000E+03   1.11000000000000000E+03   1.12000000000000000E+03   1.13000000000000000E+03   1.14000000000000000E+03
             1.15000000000000000E+03   1.16000000000000000E+03   1.17000000000000000E+03   1.18000000000000000E+03   1.19000000000000000E+03
             1.20000000000000000E+03   1.21000000000000000E+03   1.22000000000000000E+03   1.23000000000000000E+03   1.24000000000000000E+03
             1.25000000000000000E+03   1.26000000000000000E+03   1.27000000000000000E+03   1.28000000000000000E+03   1.29000000000000000E+03
             1.30000000000000000E+03   1.31000000000000000E+03   1.32000000000000000E+03   1.33000000000000000E+03   1.34000000000000000E+03
             1.35000000000000000E+03
 ETA=   17   7.00000000000000000E+02   7.10000000000000000E+02   7.20000000000000000E+02   7.30000000000000000E+02   7.40000000000000000E+02
             7.50000000000000000E+02   7.60000000000000000E+02   7.70000000000000000E+02   7.80000000000000000E+02   7.90000000000000000E+02
             8.00000000000000000E+02   8.10000000000000000E+02   8.20000000000000000E+02   8.30000000000000000E+02   8.40000000000000000E+02
             8.50000000000000000E+02   8.60000000000000000E+02   8.70000000000000000E+02   8.80000000000000000E+02   8.90000000000000000E+02
             9.00000000000000000E+02   9.10000000000000000E+02   9.20000000000000000E+02   9.30000000000000000E+02   9.40000000000000000E+02
             9.50000000000000000E+02   9.60000000000000000E+02   9.70000000000000000E+02   9.80000000000000000E+02   9.90000000000000000E+02
             1.00000000000000000E+03   1.01000000000000000E+03   1.02000000000000000E+03   1.03000000000000000E+03   1.04000000000000000E+03
             1.05000000000000000E+03   1.06000000000000000E+03   1.07000000000000000E+03   1.08000000000000000E+03   1.09000000000000000E+03
             1.10000000000000000E+03   1.11000000000000000E+03   1.12000000000000000E+03   1.13000000000000000E+03   1.14000000000000000E+03
             1.15000000000000000E+03   1.16000000000000000E+03   1.17000000000000000E+03   1.18000000000000000E+03   1.19000000000000000E+03
             1.20000000000000000E+03   1.21000000000000000E+03   1.22000000000000000E+03   1.23000000000000000E+03   1.24000000000000000E+03
             1.25000000000000000E+03   1.26000000000000000E+03   1.27000000000000000E+03   1.28000000000000000E+03   1.29000000000000000E+03
             1.30000000000000000E+03   1.31000000000000000E+03   1.32000000000000000E+03   1.33000000000000000E+03   1.34000000000000000E+03
             1.35000000000000000E+03
 ETA=   18   7.00000000000000000E+02   7.10000000000000000E+02   7.20000000000000000E+02   7.30000000000000000E+02   7.40000000000000000E+02
             7.50000000000000000E+02   7.60000000000000000E+02   7.70000000000000000E+02   7.80000000000000000E+02   7.90000000000000000E+02
             8.00000000000000000E+02   8.10000000000000000E+02   8.20000000000000000E+02   8.30000000000000000E+02   8.40000000000000000E+02
             8.50000000000000000E+02   8.60000000000000000E+02   8.70000000000000000E+02   8.80000000000000000E+02   8.90000000000000000E+02
             9.00000000000000000E+02   9.10000000000000000E+02   9.20000000000000000E+02   9.30000000000000000E+02   9.40000000000000000E+02
             9.50000000000000000E+02   9.60000000000000000E+02   9.70000000000000000E+02   9.80000000000000000E+02   9.90000000000000000E+02
             1.00000000000000000E+03   1.01000000000000000E+03   1.02000000000000000E+03   1.03000000000000000E+03   1.04000000000000000E+03
             1.05000000000000000E+03   1.06000000000000000E+03   1.07000000000000000E+03   1.08000000000000000E+03   1.09000000000000000E+03
             1.10000000000000000E+03   1.11000000000000000E+03   1.12000000000000000E+03   1.13000000000000000E+03   1.14000000000000000E+03
             1.15000000000000000E+03   1.16000000000000000E+03   1.17000000000000000E+03   1.18000000000000000E+03   1.19000000000000000E+03
             1.20000000000000000E+03   1.21000000000000000E+03   1.22000000000000000E+03   1.23000000000000000E+03   1.24000000000000000E+03
             1.25000000000000000E+03   1.26000000000000000E+03   1.27000000000000000E+03   1.28000000000000000E+03   1.29000000000000000E+03
             1.30000000000000000E+03   1.31000000000000000E+03   1.32000000000000000E+03   1.33000000000000000E+03   1.34000000000000000E+03
             1.35000000000000000E+03
 ETA=   19   7.00000000000000000E+02   7.10000000000000000E+02   7.20000000000000000E+02   7.30000000000000000E+02   7.40000000000000000E+02
             7.50000000000000000E+02   7.60000000000000000E+02   7.70000000000000000E+02   7.80000000000000000E+02   7.90000000000000000E+02
             8.00000000000000000E+02   8.10000000000000000E+02   8.20000000000000000E+02   8.30000000000000000E+02   8.40000000000000000E+02
             8.50000000000000000E+02   8.60000000000000000E+02   8.70000000000000000E+02   8.80000000000000000E+02   8.90000000000000000E+02
             9.00000000000000000E+02   9.10000000000000000E+02   9.20000000000000000E+02   9.30000000000000000E+02   9.40000000000000000E+02
             9.50000000000000000E+02   9.60000000000000000E+02   9.70000000000000000E+02   9.80000000000000000E+02   9.90000000000000000E+02
             1.00000000000000000E+03   1.01000000000000000E+03   1.02000000000000000E+03   1.03000000000000000E+03   1.04000000000000000E+03
             1.05000000000000000E+03   1.06000000000000000E+03   1.07000000000000000E+03   1.08000000000000000E+03   1.09000000000000000E+03
             1.10000000000000000E+03   1.11000000000000000E+03   1.12000000000000000E+03   1.13000000000000000E+03   1.14000000000000000E+03
             1.15000000000000000E+03   1.16000000000000000E+03   1.17000000000000000E+03   1.18000000000000000E+03   1.19000000000000000E+03
             1.20000000000000000E+03   1.21000000000000000E+03   1.22000000000000000E+03   1.23000000000000000E+03   1.24000000000000000E+03
             1.25000000000000000E+03   1.26000000000000000E+03   1.27000000000000000E+03   1.28000000000000000E+03   1.29000000000000000E+03
             1.30000000000000000E+03   1.31000000000000000E+03   1.32000000000000000E+03   1.33000000000000000E+03   1.34000000000000000E+03
             1.35000000000000000E+03
 ETA=   20   7.00000000000000000E+02   7.10000000000000000E+02   7.20000000000000000E+02   7.30000000000000000E+02   7.40000000000000000E+02
             7.50000000000000000E+02   7.60000000000000000E+02   7.70000000000000000E+02   7.80000000000000000E+02   7.90000000000000000E+02
             8.00000000000000000E+02   8.10000000000000000E+02   8.20000000000000000E+02   8.30000000000000000E+02   8.40000000000000000E+02
             8.50000000000000000E+02   8.60000000000000000E+02   8.70000000000000000E+02   8.80000000000000000E+02   8.90000000000000000E+02
             9.00000000000000000E+02   9.10000000000000000E+02   9.20000000000000000E+02   9.30000000000000000E+02   9.40000000000000000E+02
             9.50000000000000000E+02   9.60000000000000000E+02   9.70000000000000000E+02   9.80000000000000000E+02   9.90000000000000000E+02
             1.00000000000000000E+03   1.01000000000000000E+03   1.02000000000000000E+03   1.03000000000000000E+03   1.04000000000000000E+03
             1.05000000000000000E+03   1.06000000000000000E+03   1.07000000000000000E+03   1.08000000000000000E+03   1.09000000000000000E+03
             1.10000000000000000E+03   1.11000000000000000E+03   1.12000000000000000E+03   1.13000000000000000E+03   1.14000000000000000E+03
             1.15000000000000000E+03   1.16000000000000000E+03   1.17000000000000000E+03   1.18000000000000000E+03   1.19000000000000000E+03
             1.20000000000000000E+03   1.21000000000000000E+03   1.22000000000000000E+03   1.23000000000000000E+03   1.24000000000000000E+03
             1.25000000000000000E+03   1.26000000000000000E+03   1.27000000000000000E+03   1.28000000000000000E+03   1.29000000000000000E+03
             1.30000000000000000E+03   1.31000000000000000E+03   1.32000000000000000E+03   1.33000000000000000E+03   1.34000000000000000E+03
             1.35000000000000000E+03
 ETA=   21   7.00000000000000000E+02   7.10000000000000000E+02   7.20000000000000000E+02   7.30000000000000000E+02   7.40000000000000000E+02
             7.50000000000000000E+02   7.60000000000000000E+02   7.70000000000000000E+02   7.80000000000000000E+02   7.90000000000000000E+02
             8.00000000000000000E+02   8.10000000000000000E+02   8.20000000000000000E+02   8.30000000000000000E+02   8.40000000000000000E+02
             8.50000000000000000E+02   8.60000000000000000E+02   8.70000000000000000E+02   8.80000000000000000E+02   8.90000000000000000E+02
             9.00000000000000000E+02   9.10000000000000000E+02   9.20000000000000000E+02   9.30000000000000000E+02   9.40000000000000000E+02
             9.50000000000000000E+02   9.60000000000000000E+02   9.70000000000000000E+02   9.80000000000000000E+02   9.90000000000000000E+02
             1.00000000000000000E+03   1.01000000000000000E+03   1.02000000000000000E+03   1.03000000000000000E+03   1.04000000000000000E+03
             1.05000000000000000E+03   1.06000000000000000E+03   1.07000000000000000E+03   1.08000000000000000E+03   1.09000000000000000E+03
             1.10000000000000000E+03   1.11000000000000000E+03   1.12000000000000000E+03   1.13000000000000000E+03   1.14000000000000000E+03
             1.15000000000000000E+03   1.16000000000000000E+03   1.17000000000000000E+03   1.18000000000000000E+03   1.19000000000000000E+03
             1.20000000000000000E+03   1.21000000000000000E+03   1.22000000000000000E+03   1.23000000000000000E+03   1.24000000000000000E+03
             1.25000000000000000E+03   1.26000000000000000E+03   1.27000000000000000E+03   1.28000000000000000E+03   1.29000000000000000E+03
             1.30000000000000000E+03   1.31000000000000000E+03   1.32000000000000000E+03   1.33000000000000000E+03   1.34000000000000000E+03
             1.35000000000000000E+03
 ETA=   22   7.00000000000000000E+02   7.10000000000000000E+02   7.20000000000000000E+02   7.30000000000000000E+02   7.40000000000000000E+02
             7.50000000000000000E+02   7.60000000000000000E+02   7.70000000000000000E+02   7.80000000000000000E+02   7.90000000000000000E+02
             8.00000000000000000E+02   8.10000000000000000E+02   8.20000000000000000E+02   8.30000000000000000E+02   8.40000000000000000E+02
             8.50000000000000000E+02   8.60000000000000000E+02   8.70000000000000000E+02   8.80000000000000000E+02   8.90000000000000000E+02
             9.00000000000000000E+02   9.10000000000000000E+02   9.20000000000000000E+02   9.30000000000000000E+02   9.40000000000000000E+02
             9.50000000000000000E+02   9.60000000000000000E+02   9.70000000000000000E+02   9.80000000000000000E+02   9.90000000000000000E+02
             1.00000000000000000E+03   1.01000000000000000E+03   1.02000000000000000E+03   1.03000000000000000E+03   1.04000000000000000E+03
             1.05000000000000000E+03   1.06000000000000000E+03   1.07000000000000000E+03   1.08000000000000000E+03   1.09000000000000000E+03
             1.10000000000000000E+03   1.11000000000000000E+03   1.12000000000000000E+03   1.13000000000000000E+03   1.14000000000000000E+03
             1.15000000000000000E+03   1.16000000000000000E+03   1.17000000000000000E+03   1.18000000000000000E+03   1.19000000000000000E+03
             1.20000000000000000E+03   1.21000000000000000E+03   1.22000000000000000E+03   1.23000000000000000E+03   1.24000000000000000E+03
             1.25000000000000000E+03   1.26000000000000000E+03   1.27000000000000000E+03   1.28000000000000000E+03   1.29000000000000000E+03
             1.30000000000000000E+03   1.31000000000000000E+03   1.32000000000000000E+03   1.33000000000000000E+03   1.34000000000000000E+03
             1.35000000000000000E+03
 ETA=   23   7.00000000000000000E+02   7.10000000000000000E+02   7.20000000000000000E+02   7.30000000000000000E+02   7.40000000000000000E+02
             7.50000000000000000E+02   7.60000000000000000E+02   7.70000000000000000E+02   7.80000000000000000E+02   7.90000000000000000E+02
             8.00000000000000000E+02   8.10000000000000000E+02   8.20000000000000000E+02   8.30000000000000000E+02   8.40000000000000000E+02
             8.50000000000000000E+02   8.60000000000000000E+02   8.70000000000000000E+02   8.80000000000000000E+02   8.90000000000000000E+02
             9.00000000000000000E+02   9.10000000000000000E+02   9.20000000000000000E+02   9.30000000000000000E+02   9.40000000000000000E+02
             9.50000000000000000E+02   9.60000000000000000E+02   9.70000000000000000E+02   9.80000000000000000E+02   9.90000000000000000E+02
             1.00000000000000000E+03   1.01000000000000000E+03   1.02000000000000000E+03   1.03000000000000000E+03   1.04000000000000000E+03
             1.05000000000000000E+03   1.06000000000000000E+03   1.07000000000000000E+03   1.08000000000000000E+03   1.09000000000000000E+03
             1.10000000000000000E+03   1.11000000000000000E+03   1.12000000000000000E+03   1.13000000000000000E+03   1.14000000000000000E+03
             1.15000000000000000E+03   1.16000000000000000E+03   1.17000000000000000E+03   1.18000000000000000E+03   1.19000000000000000E+03
             1.20000000000000000E+03   1.21000000000000000E+03   1.22000000000000000E+03   1.23000000000000000E+03   1.24000000000000000E+03
             1.25000000000000000E+03   1.26000000000000000E+03   1.27000000000000000E+03   1.28000000000000000E+03   1.29000000000000000E+03
             1.30000000000000000E+03   1.31000000000000000E+03   1.32000000000000000E+03   1.33000000000000000E+03   1.34000000000000000E+03
             1.35000000000000000E+03
 ETA=   24   7.00000000000000000E+02   7.10000000000000000E+02   7.20000000000000000E+02   7.30000000000000000E+02   7.40000000000000000E+02
             7.50000000000000000E+02   7.60000000000000000E+02   7.70000000000000000E+02   7.80000000000000000E+02   7.90000000000000000E+02
             8.00000000000000000E+02   8.10000000000000000E+02   8.20000000000000000E+02   8.30000000000000000E+02   8.40000000000000000E+02
             8.50000000000000000E+02   8.60000000000000000E+02   8.70000000000000000E+02   8.80000000000000000E+02   8.90000000000000000E+02
             9.00000000000000000E+02   9.10000000000000000E+02   9.20000000000000000E+02   9.30000000000000000E+02   9.40000000000000000E+02
             9.50000000000000000E+02   9.60000000000000000E+02   9.70000000000000000E+02   9.80000000000000000E+02   9.90000000000000000E+02
             1.00000000000000000E+03   1.01000000000000000E+03   1.02000000000000000E+03   1.03000000000000000E+03   1.04000000000000000E+03
             1.05000000000000000E+03   1.06000000000000000E+03   1.07000000000000000E+03   1.08000000000000000E+03   1.09000000000000000E+03
             1.10000000000000000E+03   1.11000000000000000E+03   1.12000000000000000E+03   1.13000000000000000E+03   1.14000000000000000E+03
             1.15000000000000000E+03   1.16000000000000000E+03   1.17000000000000000E+03   1.18000000000000000E+03   1.19000000000000000E+03
             1.20000000000000000E+03   1.21000000000000000E+03   1.22000000000000000E+03   1.23000000000000000E+03   1.24000000000000000E+03
             1.25000000000000000E+03   1.26000000000000000E+03   1.27000000000000000E+03   1.28000000000000000E+03   1.29000000000000000E+03
             1.30000000000000000E+03   1.31000000000000000E+03   1.32000000000000000E+03   1.33000000000000000E+03   1.34000000000000000E+03
             1.35000000000000000E+03
 ETA=   25   7.00000000000000000E+02   7.10000000000000000E+02   7.20000000000000000E+02   7.30000000000000000E+02   7.40000000000000000E+02
             7.50000000000000000E+02   7.60000000000000000E+02   7.70000000000000000E+02   7.80000000000000000E+02   7.90000000000000000E+02
             8.00000000000000000E+02   8.10000000000000000E+02   8.20000000000000000E+02   8.30000000000000000E+02   8.40000000000000000E+02
             8.50000000000000000E+02   8.60000000000000000E+02   8.70000000000000000E+02   8.80000000000000000E+02   8.90000000000000000E+02
             9.00000000000000000E+02   9.10000000000000000E+02   9.20000000000000000E+02   9.30000000000000000E+02   9.40000000000000000E+02
             9.50000000000000000E+02   9.60000000000000000E+02   9.70000000000000000E+02   9.80000000000000000E+02   9.90000000000000000E+02
             1.00000000000000000E+03   1.01000000000000000E+03   1.02000000000000000E+03   1.03000000000000000E+03   1.04000000000000000E+03
             1.05000000000000000E+03   1.06000000000000000E+03   1.07000000000000000E+03   1.08000000000000000E+03   1.09000000000000000E+03
             1.10000000000000000E+03   1.11000000000000000E+03   1.12000000000000000E+03   1.13000000000000000E+03   1.14000000000000000E+03
             1.15000000000000000E+03   1.16000000000000000E+03   1.17000000000000000E+03   1.18000000000000000E+03   1.19000000000000000E+03
             1.20000000000000000E+03   1.21000000000000000E+03   1.22000000000000000E+03   1.23000000000000000E+03   1.24000000000000000E+03
             1.25000000000000000E+03   1.26000000000000000E+03   1.27000000000000000E+03   1.28000000000000000E+03   1.29000000000000000E+03
             1.30000000000000000E+03   1.31000000000000000E+03   1.32000000000000000E+03   1.33000000000000000E+03   1.34000000000000000E+03
             1.35000000000000000E+03
 ETA=   26   7.00000000000000000E+02   7.10000000000000000E+02   7.20000000000000000E+02   7.30000000000000000E+02   7.40000000000000000E+02
             7.50000000000000000E+02   7.60000000000000000E+02   7.70000000000000000E+02   7.80000000000000000E+02   7.90000000000000000E+02
             8.00000000000000000E+02   8.10000000000000000E+02   8.20000000000000000E+02   8.30000000000000000E+02   8.40000000000000000E+02
             8.50000000000000000E+02   8.60000000000000000E+02   8.70000000000000000E+02   8.80000000000000000E+02   8.90000000000000000E+02
             9.00000000000000000E+02   9.10000000000000000E+02   9.20000000000000000E+02   9.30000000000000000E+02   9.40000000000000000E+02
             9.50000000000000000E+02   9.60000000000000000E+02   9.70000000000000000E+02   9.80000000000000000E+02   9.90000000000000000E+02
             1.00000000000000000E+03   1.01000000000000000E+03   1.02000000000000000E+03   1.03000000000000000E+03   1.04000000000000000E+03
             1.05000000000000000E+03   1.06000000000000000E+03   1.07000000000000000E+03   1.08000000000000000E+03   1.09000000000000000E+03
             1.10000000000000000E+03   1.11000000000000000E+03   1.12000000000000000E+03   1.13000000000000000E+03   1.14000000000000000E+03
             1.15000000000000000E+03   1.16000000000000000E+03   1.17000000000000000E+03   1.18000000000000000E+03   1.19000000000000000E+03
             1.20000000000000000E+03   1.21000000000000000E+03   1.22000000000000000E+03   1.23000000000000000E+03   1.24000000000000000E+03
             1.25000000000000000E+03   1.26000000000000000E+03   1.27000000000000000E+03   1.28000000000000000E+03   1.29000000000000000E+03
             1.30000000000000000E+03   1.31000000000000000E+03   1.32000000000000000E+03   1.33000000000000000E+03   1.34000000000000000E+03
             1.35000000000000000E+03
 ETA=   27   7.00000000000000000E+02   7.10000000000000000E+02   7.20000000000000000E+02   7.30000000000000000E+02   7.40000000000000000E+02
             7.50000000000000000E+02   7.60000000000000000E+02   7.70000000000000000E+02   7.80000000000000000E+02   7.90000000000000000E+02
             8.00000000000000000E+02   8.10000000000000000E+02   8.20000000000000000E+02   8.30000000000000000E+02   8.40000000000000000E+02
             8.50000000000000000E+02   8.60000000000000000E+02   8.70000000000000000E+02   8.80000000000000000E+02   8.90000000000000000E+02
             9.00000000000000000E+02   9.10000000000000000E+02   9.20000000000000000E+02   9.30000000000000000E+02   9.40000000000000000E+02
             9.50000000000000000E+02   9.60000000000000000E+02   9.70000000000000000E+02   9.80000000000000000E+02   9.90000000000000000E+02
             1.00000000000000000E+03   1.01000000000000000E+03   1.02000000000000000E+03   1.03000000000000000E+03   1.04000000000000000E+03
             1.05000000000000000E+03   1.06000000000000000E+03   1.07000000000000000E+03   1.08000000000000000E+03   1.09000000000000000E+03
             1.10000000000000000E+03   1.11000000000000000E+03   1.12000000000000000E+03   1.13000000000000000E+03   1.14000000000000000E+03
             1.15000000000000000E+03   1.16000000000000000E+03   1.17000000000000000E+03   1.18000000000000000E+03   1.19000000000000000E+03
             1.20000000000000000E+03   1.21000000000000000E+03   1.22000000000000000E+03   1.23000000000000000E+03   1.24000000000000000E+03
             1.25000000000000000E+03   1.26000000000000000E+03   1.27000000000000000E+03   1.28000000000000000E+03   1.29000000000000000E+03
             1.30000000000000000E+03   1.31000000000000000E+03   1.32000000000000000E+03   1.33000000000000000E+03   1.34000000000000000E+03
             1.35000000000000000E+03
 ETA=   28   7.00000000000000000E+02   7.10000000000000000E+02   7.20000000000000000E+02   7.30000000000000000E+02   7.40000000000000000E+02
             7.50000000000000000E+02   7.60000000000000000E+02   7.70000000000000000E+02   7.80000000000000000E+02   7.90000000000000000E+02
             8.00000000000000000E+02   8.10000000000000000E+02   8.20000000000000000E+02   8.30000000000000000E+02   8.40000000000000000E+02
             8.50000000000000000E+02   8.60000000000000000E+02   8.70000000000000000E+02   8.80000000000000000E+02   8.90000000000000000E+02
             9.00000000000000000E+02   9.10000000000000000E+02   9.20000000000000000E+02   9.30000000000000000E+02   9.40000000000000000E+02
             9.50000000000000000E+02   9.60000000000000000E+02   9.70000000000000000E+02   9.80000000000000000E+02   9.90000000000000000E+02
             1.00000000000000000E+03   1.01000000000000000E+03   1.02000000000000000E+03   1.03000000000000000E+03   1.04000000000000000E+03
             1.05000000000000000E+03   1.06000000000000000E+03   1.07000000000000000E+03   1.08000000000000000E+03   1.09000000000000000E+03
             1.10000000000000000E+03   1.11000000000000000E+03   1.12000000000000000E+03   1.13000000000000000E+03   1.14000000000000000E+03
             1.15000000000000000E+03   1.16000000000000000E+03   1.17000000000000000E+03   1.18000000000000000E+03   1.19000000000000000E+03
             1.20000000000000000E+03   1.21000000000000000E+03   1.22000000000000000E+03   1.23000000000000000E+03   1.24000000000000000E+03
             1.25000000000000000E+03   1.26000000000000000E+03   1.27000000000000000E+03   1.28000000000000000E+03   1.29000000000000000E+03
             1.30000000000000000E+03   1.31000000000000000E+03   1.32000000000000000E+03   1.33000000000000000E+03   1.34000000000000000E+03
             1.35000000000000000E+03
 ETA=   29   7.00000000000000000E+02   7.10000000000000000E+02   7.20000000000000000E+02   7.30000000000000000E+02   7.40000000000000000E+02
             7.50000000000000000E+02   7.60000000000000000E+02   7.70000000000000000E+02   7.80000000000000000E+02   7.90000000000000000E+02
             8.00000000000000000E+02   8.10000000000000000E+02   8.20000000000000000E+02   8.30000000000000000E+02   8.40000000000000000E+02
             8.50000000000000000E+02   8.60000000000000000E+02   8.70000000000000000E+02   8.80000000000000000E+02   8.90000000000000000E+02
             9.00000000000000000E+02   9.10000000000000000E+02   9.20000000000000000E+02   9.30000000000000000E+02   9.40000000000000000E+02
             9.50000000000000000E+02   9.60000000000000000E+02   9.70000000000000000E+02   9.80000000000000000E+02   9.90000000000000000E+02
             1.00000000000000000E+03   1.01000000000000000E+03   1.02000000000000000E+03   1.03000000000000000E+03   1.04000000000000000E+03
             1.05000000000000000E+03   1.06000000000000000E+03   1.07000000000000000E+03   1.08000000000000000E+03   1.09000000000000000E+03
             1.10000000000000000E+03   1.11000000000000000E+03   1.12000000000000000E+03   1.13000000000000000E+03   1.14000000000000000E+03
             1.15000000000000000E+03   1.16000000000000000E+03   1.17000000000000000E+03   1.18000000000000000E+03   1.19000000000000000E+03
             1.20000000000000000E+03   1.21000000000000000E+03   1.22000000000000000E+03   1.23000000000000000E+03   1.24000000000000000E+03
             1.25000000000000000E+03   1.26000000000000000E+03   1.27000000000000000E+03   1.28000000000000000E+03   1.29000000000000000E+03
             1.30000000000000000E+03   1.31000000000000000E+03   1.32000000000000000E+03   1.33000000000000000E+03   1.34000000000000000E+03
             1.35000000000000000E+03
 ETA=   30   7.00000000000000000E+02   7.10000000000000000E+02   7.20000000000000000E+02   7.30000000000000000E+02   7.40000000000000000E+02
             7.50000000000000000E+02   7.60000000000000000E+02   7.70000000000000000E+02   7.80000000000000000E+02   7.90000000000000000E+02
             8.00000000000000000E+02   8.10000000000000000E+02   8.20000000000000000E+02   8.30000000000000000E+02   8.40000000000000000E+02
             8.50000000000000000E+02   8.60000000000000000E+02   8.70000000000000000E+02   8.80000000000000000E+02   8.90000000000000000E+02
             9.00000000000000000E+02   9.10000000000000000E+02   9.20000000000000000E+02   9.30000000000000000E+02   9.40000000000000000E+02
             9.50000000000000000E+02   9.60000000000000000E+02   9.70000000000000000E+02   9.80000000000000000E+02   9.90000000000000000E+02
             1.00000000000000000E+03   1.01000000000000000E+03   1.02000000000000000E+03   1.03000000000000000E+03   1.04000000000000000E+03
             1.05000000000000000E+03   1.06000000000000000E+03   1.07000000000000000E+03   1.08000000000000000E+03   1.09000000000000000E+03
             1.10000000000000000E+03   1.11000000000000000E+03   1.12000000000000000E+03   1.13000000000000000E+03   1.14000000000000000E+03
             1.15000000000000000E+03   1.16000000000000000E+03   1.17000000000000000E+03   1.18000000000000000E+03   1.19000000000000000E+03
             1.20000000000000000E+03   1.21000000000000000E+03   1.22000000000000000E+03   1.23000000000000000E+03   1.24000000000000000E+03
             1.25000000000000000E+03   1.26000000000000000E+03   1.27000000000000000E+03   1.28000000000000000E+03   1.29000000000000000E+03
             1.30000000000000000E+03   1.31000000000000000E+03   1.32000000000000000E+03   1.33000000000000000E+03   1.34000000000000000E+03
             1.35000000000000000E+03
 ETA=   31   7.00000000000000000E+02   7.10000000000000000E+02   7.20000000000000000E+02   7.30000000000000000E+02   7.40000000000000000E+02
             7.50000000000000000E+02   7.60000000000000000E+02   7.70000000000000000E+02   7.80000000000000000E+02   7.90000000000000000E+02
             8.00000000000000000E+02   8.10000000000000000E+02   8.20000000000000000E+02   8.30000000000000000E+02   8.40000000000000000E+02
             8.50000000000000000E+02   8.60000000000000000E+02   8.70000000000000000E+02   8.80000000000000000E+02   8.90000000000000000E+02
             9.00000000000000000E+02   9.10000000000000000E+02   9.20000000000000000E+02   9.30000000000000000E+02   9.40000000000000000E+02
             9.50000000000000000E+02   9.60000000000000000E+02   9.70000000000000000E+02   9.80000000000000000E+02   9.90000000000000000E+02
             1.00000000000000000E+03   1.01000000000000000E+03   1.02000000000000000E+03   1.03000000000000000E+03   1.04000000000000000E+03
             1.05000000000000000E+03   1.06000000000000000E+03   1.07000000000000000E+03   1.08000000000000000E+03   1.09000000000000000E+03
             1.10000000000000000E+03   1.11000000000000000E+03   1.12000000000000000E+03   1.13000000000000000E+03   1.14000000000000000E+03
             1.15000000000000000E+03   1.16000000000000000E+03   1.17000000000000000E+03   1.18000000000000000E+03   1.19000000000000000E+03
             1.20000000000000000E+03   1.21000000000000000E+03   1.22000000000000000E+03   1.23000000000000000E+03   1.24000000000000000E+03
             1.25000000000000000E+03   1.26000000000000000E+03   1.27000000000000000E+03   1.28000000000000000E+03   1.29000000000000000E+03
             1.30000000000000000E+03   1.31000000000000000E+03   1.32000000000000000E+03   1.33000000000000000E+03   1.34000000000000000E+03
             1.35000000000000000E+03
 ETA=   32   7.00000000000000000E+02   7.10000000000000000E+02   7.20000000000000000E+02   7.30000000000000000E+02   7.40000000000000000E+02
             7.50000000000000000E+02   7.60000000000000000E+02   7.70000000000000000E+02   7.80000000000000000E+02   7.90000000000000000E+02
             8.00000000000000000E+02   8.10000000000000000E+02   8.20000000000000000E+02   8.30000000000000000E+02   8.40000000000000000E+02
             8.50000000000000000E+02   8.60000000000000000E+02   8.70000000000000000E+02   8.80000000000000000E+02   8.90000000000000000E+02
             9.00000000000000000E+02   9.10000000000000000E+02   9.20000000000000000E+02   9.30000000000000000E+02   9.40000000000000000E+02
             9.50000000000000000E+02   9.60000000000000000E+02   9.70000000000000000E+02   9.80000000000000000E+02   9.90000000000000000E+02
             1.00000000000000000E+03   1.01000000000000000E+03   1.02000000000000000E+03   1.03000000000000000E+03   1.04000000000000000E+03
             1.05000000000000000E+03   1.06000000000000000E+03   1.07000000000000000E+03   1.08000000000000000E+03   1.09000000000000000E+03
             1.10000000000000000E+03   1.11000000000000000E+03   1.12000000000000000E+03   1.13000000000000000E+03   1.14000000000000000E+03
             1.15000000000000000E+03   1.16000000000000000E+03   1.17000000000000000E+03   1.18000000000000000E+03   1.19000000000000000E+03
             1.20000000000000000E+03   1.21000000000000000E+03   1.22000000000000000E+03   1.23000000000000000E+03   1.24000000000000000E+03
             1.25000000000000000E+03   1.26000000000000000E+03   1.27000000000000000E+03   1.28000000000000000E+03   1.29000000000000000E+03
             1.30000000000000000E+03   1.31000000000000000E+03   1.32000000000000000E+03   1.33000000000000000E+03   1.34000000000000000E+03
             1.35000000000000000E+03
 ETA=   33   7.00000000000000000E+02   7.10000000000000000E+02   7.20000000000000000E+02   7.30000000000000000E+02   7.40000000000000000E+02
             7.50000000000000000E+02   7.60000000000000000E+02   7.70000000000000000E+02   7.80000000000000000E+02   7.90000000000000000E+02
             8.00000000000000000E+02   8.10000000000000000E+02   8.20000000000000000E+02   8.30000000000000000E+02   8.40000000000000000E+02
             8.50000000000000000E+02   8.60000000000000000E+02   8.70000000000000000E+02   8.80000000000000000E+02   8.90000000000000000E+02
             9.00000000000000000E+02   9.10000000000000000E+02   9.20000000000000000E+02   9.30000000000000000E+02   9.40000000000000000E+02
             9.50000000000000000E+02   9.60000000000000000E+02   9.70000000000000000E+02   9.80000000000000000E+02   9.89926000000000045E+02
             1.00000000000000000E+03   1.01001300000000003E+03   1.02000000000000000E+03   1.03000000000000000E+03   1.04000000000000000E+03
             1.05000000000000000E+03   1.06000000000000000E+03   1.07000000000000000E+03   1.08000000000000000E+03   1.09000000000000000E+03
             1.10000000000000000E+03   1.11000000000000000E+03   1.12000000000000000E+03   1.13000000000000000E+03   1.14000000000000000E+03
             1.15000000000000000E+03   1.16000000000000000E+03   1.17000000000000000E+03   1.18000000000000000E+03   1.19000000000000000E+03
             1.20000000000000000E+03   1.21000000000000000E+03   1.22000000000000000E+03   1.23000000000000000E+03   1.24000000000000000E+03
             1.25000000000000000E+03   1.26000000000000000E+03   1.27000000000000000E+03   1.28000000000000000E+03   1.29000000000000000E+03
             1.30000000000000000E+03   1.31000000000000000E+03   1.32000000000000000E+03   1.33000000000000000E+03   1.34000000000000000E+03
             1.35000000000000000E+03
 ETA=   34   7.00000000000000000E+02   7.10000000000000000E+02   7.20000000000000000E+02   7.30000000000000000E+02   7.40000000000000000E+02
             7.50000000000000000E+02   7.60000000000000000E+02   7.70000000000000000E+02   7.80000000000000000E+02   7.90000000000000000E+02
             8.00000000000000000E+02   8.10000000000000000E+02   8.20000000000000000E+02   8.30000000000000000E+02   8.40000000000000000E+02
             8.50000000000000000E+02   8.60000000000000000E+02   8.70000000000000000E+02   8.80000000000000000E+02   8.90000000000000000E+02
             9.00000000000000000E+02   9.10000000000000000E+02   9.20000000000000000E+02   9.30000000000000000E+02   9.40000000000000000E+02
             9.50000000000000000E+02   9.60000000000000000E+02   9.70000000000000000E+02   9.80000000000000000E+02   9.90000000000000000E+02
             1.00000000000000000E+03   1.01000000000000000E+03   1.02000000000000000E+03   1.03000000000000000E+03   1.04000000000000000E+03
             1.05000000000000000E+03   1.06000000000000000E+03   1.07000000000000000E+03   1.08000000000000000E+03   1.09000000000000000E+03
             1.10000000000000000E+03   1.11000000000000000E+03   1.12000000000000000E+03   1.13000000000000000E+03   1.14000000000000000E+03
             1.15000000000000000E+03   1.16000000000000000E+03   1.17000000000000000E+03   1.18000000000000000E+03   1.19000000000000000E+03
             1.20000000000000000E+03   1.21000000000000000E+03   1.22000000000000000E+03   1.23000000000000000E+03   1.24000000000000000E+03
             1.25000000000000000E+03   1.26000000000000000E+03   1.27000000000000000E+03   1.28000000000000000E+03   1.29000000000000000E+03
             1.30000000000000000E+03   1.31000000000000000E+03   1.32000000000000000E+03   1.33000000000000000E+03   1.34000000000000000E+03
             1.35000000000000000E+03
 ETA=   35   7.00000000000000000E+02   7.10000000000000000E+02   7.20000000000000000E+02   7.30000000000000000E+02   7.40000000000000000E+02
             7.50000000000000000E+02   7.60000000000000000E+02   7.70000000000000000E+02   7.80000000000000000E+02   7.90000000000000000E+02
             8.00000000000000000E+02   8.10000000000000000E+02   8.20000000000000000E+02   8.30000000000000000E+02   8.40000000000000000E+02
             8.50000000000000000E+02   8.60000000000000000E+02   8.70000000000000000E+02   8.80000000000000000E+02   8.90000000000000000E+02
             9.00000000000000000E+02   9.10000000000000000E+02   9.20000000000000000E+02   9.30000000000000000E+02   9.40000000000000000E+02
             9.50000000000000000E+02   9.60000000000000000E+02   9.70000000000000000E+02   9.80000000000000000E+02   9.90000000000000000E+02
             1.00000000000000000E+03   1.01000000000000000E+03   1.02000000000000000E+03   1.03000000000000000E+03   1.04000000000000000E+03
             1.05000000000000000E+03   1.06000000000000000E+03   1.07000000000000000E+03   1.08000000000000000E+03   1.09000000000000000E+03
             1.10000000000000000E+03   1.11000000000000000E+03   1.12000000000000000E+03   1.13000000000000000E+03   1.14000000000000000E+03
             1.15000000000000000E+03   1.16000000000000000E+03   1.17000000000000000E+03   1.18000000000000000E+03   1.19000000000000000E+03
             1.20000000000000000E+03   1.21000000000000000E+03   1.22000000000000000E+03   1.23000000000000000E+03   1.24000000000000000E+03
             1.25000000000000000E+03   1.26000000000000000E+03   1.27000000000000000E+03   1.28000000000000000E+03   1.29000000000000000E+03
             1.30000000000000000E+03   1.31000000000000000E+03   1.32000000000000000E+03   1.33000000000000000E+03   1.34000000000000000E+03
             1.35000000000000000E+03
 ETA=   36   7.00000000000000000E+02   7.10000000000000000E+02   7.20000000000000000E+02   7.30000000000000000E+02   7.40000000000000000E+02
             7.50000000000000000E+02   7.60000000000000000E+02   7.70000000000000000E+02   7.80000000000000000E+02   7.90000000000000000E+02
             8.00000000000000000E+02   8.10000000000000000E+02   8.20000000000000000E+02   8.30000000000000000E+02   8.40000000000000000E+02
             8.50000000000000000E+02   8.60000000000000000E+02   8.70000000000000000E+02   8.80000000000000000E+02   8.90000000000000000E+02
             9.00000000000000000E+02   9.10000000000000000E+02   9.20000000000000000E+02   9.30000000000000000E+02   9.40000000000000000E+02
             9.50000000000000000E+02   9.60000000000000000E+02   9.70000000000000000E+02   9.80000000000000000E+02   9.90000000000000000E+02
             1.00000000000000000E+03   1.01000000000000000E+03   1.02000000000000000E+03   1.03000000000000000E+03   1.04000000000000000E+03
             1.05000000000000000E+03   1.06000000000000000E+03   1.07000000000000000E+03   1.08000000000000000E+03   1.09000000000000000E+03
             1.10000000000000000E+03   1.11000000000000000E+03   1.12000000000000000E+03   1.13000000000000000E+03   1.14000000000000000E+03
             1.15000000000000000E+03   1.16000000000000000E+03   1.17000000000000000E+03   1.18000000000000000E+03   1.19000000000000000E+03
             1.20000000000000000E+03   1.21000000000000000E+03   1.22000000000000000E+03   1.23000000000000000E+03   1.24000000000000000E+03
             1.25000000000000000E+03   1.26000000000000000E+03   1.27000000000000000E+03   1.28000000000000000E+03   1.29000000000000000E+03
             1.30000000000000000E+03   1.31000000000000000E+03   1.32000000000000000E+03   1.33000000000000000E+03   1.34000000000000000E+03
             1.35000000000000000E+03
 ETA=   37   7.00000000000000000E+02   7.10000000000000000E+02   7.20000000000000000E+02   7.30000000000000000E+02   7.40000000000000000E+02
             7.50000000000000000E+02   7.60000000000000000E+02   7.70000000000000000E+02   7.80000000000000000E+02   7.90000000000000000E+02
             8.00000000000000000E+02   8.10000000000000000E+02   8.20000000000000000E+02   8.30000000000000000E+02   8.40000000000000000E+02
             8.50000000000000000E+02   8.60000000000000000E+02   8.70000000000000000E+02   8.80000000000000000E+02   8.90000000000000000E+02
             9.00000000000000000E+02   9.10000000000000000E+02   9.20000000000000000E+02   9.30000000000000000E+02   9.40000000000000000E+02
             9.50000000000000000E+02   9.60000000000000000E+02   9.70000000000000000E+02   9.80000000000000000E+02   9.90000000000000000E+02
             1.00000000000000000E+03   1.01000000000000000E+03   1.02000000000000000E+03   1.03000000000000000E+03   1.04000000000000000E+03
             1.05000000000000000E+03   1.06000000000000000E+03   1.07000000000000000E+03   1.08000000000000000E+03   1.09000000000000000E+03
             1.10000000000000000E+03   1.11000000000000000E+03   1.12000000000000000E+03   1.13000000000000000E+03   1.14000000000000000E+03
             1.15000000000000000E+03   1.16000000000000000E+03   1.17000000000000000E+03   1.18000000000000000E+03   1.19000000000000000E+03
             1.20000000000000000E+03   1.21000000000000000E+03   1.22000000000000000E+03   1.23000000000000000E+03   1.24000000000000000E+03
             1.25000000000000000E+03   1.26000000000000000E+03   1.27000000000000000E+03   1.28000000000000000E+03   1.29000000000000000E+03
             1.30000000000000000E+03   1.31000000000000000E+03   1.32000000000000000E+03   1.33000000000000000E+03   1.34000000000000000E+03
             1.35000000000000000E+03
 ETA=   38   7.00000000000000000E+02   7.10000000000000000E+02   7.20000000000000000E+02   7.30000000000000000E+02   7.40000000000000000E+02
             7.50000000000000000E+02   7.60000000000000000E+02   7.70000000000000000E+02   7.80000000000000000E+02   7.90000000000000000E+02
             8.00000000000000000E+02   8.10000000000000000E+02   8.20000000000000000E+02   8.30000000000000000E+02   8.40000000000000000E+02
             8.50000000000000000E+02   8.60000000000000000E+02   8.70000000000000000E+02   8.80000000000000000E+02   8.90000000000000000E+02
             9.00000000000000000E+02   9.10000000000000000E+02   9.20000000000000000E+02   9.30000000000000000E+02   9.40000000000000000E+02
             9.50000000000000000E+02   9.60000000000000000E+02   9.70000000000000000E+02   9.80000000000000000E+02   9.90000000000000000E+02
             1.00000000000000000E+03   1.01000000000000000E+03   1.02000000000000000E+03   1.03000000000000000E+03   1.04000000000000000E+03
             1.05000000000000000E+03   1.06000000000000000E+03   1.07000000000000000E+03   1.08000000000000000E+03   1.09000000000000000E+03
             1.10000000000000000E+03   1.11000000000000000E+03   1.12000000000000000E+03   1.13000000000000000E+03   1.14000000000000000E+03
             1.15000000000000000E+03   1.16000000000000000E+03   1.17000000000000000E+03   1.18000000000000000E+03   1.19000000000000000E+03
             1.20000000000000000E+03   1.21000000000000000E+03   1.22000000000000000E+03   1.23000000000000000E+03   1.24000000000000000E+03
             1.25000000000000000E+03   1.26000000000000000E+03   1.27000000000000000E+03   1.28000000000000000E+03   1.29000000000000000E+03
             1.30000000000000000E+03   1.31000000000000000E+03   1.32000000000000000E+03   1.33000000000000000E+03   1.34000000000000000E+03
             1.35000000000000000E+03
 ETA=   39   7.00000000000000000E+02   7.10000000000000000E+02   7.20000000000000000E+02   7.30000000000000000E+02   7.40000000000000000E+02
             7.50000000000000000E+02   7.60000000000000000E+02   7.70000000000000000E+02   7.80000000000000000E+02   7.90000000000000000E+02
             8.00000000000000000E+02   8.10000000000000000E+02   8.20000000000000000E+02   8.30000000000000000E+02   8.40000000000000000E+02
             8.50000000000000000E+02   8.60000000000000000E+02   8.70000000000000000E+02   8.80000000000000000E+02   8.90000000000000000E+02
             9.00000000000000000E+02   9.10000000000000000E+02   9.20000000000000000E+02   9.30000000000000000E+02   9.40000000000000000E+02
             9.50000000000000000E+02   9.60000000000000000E+02   9.70000000000000000E+02   9.80000000000000000E+02   9.90000000000000000E+02
             1.00000000000000000E+03   1.01000000000000000E+03   1.02000000000000000E+03   1.03000000000000000E+03   1.04000000000000000E+03
             1.05000000000000000E+03   1.06000000000000000E+03   1.07000000000000000E+03   1.08000000000000000E+03   1.09000000000000000E+03
             1.10000000000000000E+03   1.11000000000000000E+03   1.12000000000000000E+03   1.13000000000000000E+03   1.14000000000000000E+03
             1.15000000000000000E+03   1.16000000000000000E+03   1.17000000000000000E+03   1.18000000000000000E+03   1.19000000000000000E+03
             1.20000000000000000E+03   1.21000000000000000E+03   1.22000000000000000E+03   1.23000000000000000E+03   1.24000000000000000E+03
             1.25000000000000000E+03   1.26000000000000000E+03   1.27000000000000000E+03   1.28000000000000000E+03   1.29000000000000000E+03
             1.30000000000000000E+03   1.31000000000000000E+03   1.32000000000000000E+03   1.33000000000000000E+03   1.34000000000000000E+03
             1.35000000000000000E+03
 ETA=   40   7.00000000000000000E+02   7.10000000000000000E+02   7.20000000000000000E+02   7.30000000000000000E+02   7.40000000000000000E+02
             7.50000000000000000E+02   7.60000000000000000E+02   7.70000000000000000E+02   7.80000000000000000E+02   7.90000000000000000E+02
             8.00000000000000000E+02   8.10000000000000000E+02   8.20000000000000000E+02   8.30000000000000000E+02   8.40000000000000000E+02
             8.50000000000000000E+02   8.60000000000000000E+02   8.70000000000000000E+02   8.80000000000000000E+02   8.90000000000000000E+02
             9.00000000000000000E+02   9.10000000000000000E+02   9.20000000000000000E+02   9.30000000000000000E+02   9.40000000000000000E+02
             9.50000000000000000E+02   9.60000000000000000E+02   9.70000000000000000E+02   9.80000000000000000E+02   9.90000000000000000E+02
             1.00000000000000000E+03   1.01000000000000000E+03   1.02000000000000000E+03   1.03000000000000000E+03   1.04000000000000000E+03
             1.05000000000000000E+03   1.06000000000000000E+03   1.07000000000000000E+03   1.08000000000000000E+03   1.09000000000000000E+03
             1.10000000000000000E+03   1.11000000000000000E+03   1.12000000000000000E+03   1.13000000000000000E+03   1.14000000000000000E+03
             1.15000000000000000E+03   1.16000000000000000E+03   1.17000000000000000E+03   1.18000000000000000E+03   1.19000000000000000E+03
             1.20000000000000000E+03   1.21000000000000000E+03   1.22000000000000000E+03   1.23000000000000000E+03   1.24000000000000000E+03
             1.25000000000000000E+03   1.26000000000000000E+03   1.27000000000000000E+03   1.28000000000000000E+03   1.29000000000000000E+03
             1.30000000000000000E+03   1.31000000000000000E+03   1.32000000000000000E+03   1.33000000000000000E+03   1.34000000000000000E+03
             1.35000000000000000E+03
 ETA=   41   7.00000000000000000E+02   7.10000000000000000E+02   7.20000000000000000E+02   7.30000000000000000E+02   7.40000000000000000E+02
             7.50000000000000000E+02   7.60000000000000000E+02   7.70000000000000000E+02   7.80000000000000000E+02   7.90000000000000000E+02
             8.00000000000000000E+02   8.10000000000000000E+02   8.20000000000000000E+02   8.30000000000000000E+02   8.40000000000000000E+02
             8.50000000000000000E+02   8.60000000000000000E+02   8.70000000000000000E+02   8.80000000000000000E+02   8.90000000000000000E+02
             9.00000000000000000E+02   9.10000000000000000E+02   9.20000000000000000E+02   9.30000000000000000E+02   9.40000000000000000E+02
             9.50000000000000000E+02   9.60000000000000000E+02   9.70000000000000000E+02   9.80000000000000000E+02   9.90000000000000000E+02
             1.00000000000000000E+03   1.01000000000000000E+03   1.02000000000000000E+03   1.03000000000000000E+03   1.04000000000000000E+03
             1.05000000000000000E+03   1.06000000000000000E+03   1.07000000000000000E+03   1.08000000000000000E+03   1.09000000000000000E+03
             1.10000000000000000E+03   1.11000000000000000E+03   1.12000000000000000E+03   1.13000000000000000E+03   1.14000000000000000E+03
             1.15000000000000000E+03   1.16000000000000000E+03   1.17000000000000000E+03   1.18000000000000000E+03   1.19000000000000000E+03
             1.20000000000000000E+03   1.21000000000000000E+03   1.22000000000000000E+03   1.23000000000000000E+03   1.24000000000000000E+03
             1.25000000000000000E+03   1.26000000000000000E+03   1.27000000000000000E+03   1.28000000000000000E+03   1.29000000000000000E+03
             1.30000000000000000E+03   1.31000000000000000E+03   1.32000000000000000E+03   1.33000000000000000E+03   1.34000000000000000E+03
             1.35000000000000000E+03
 ETA=   42   7.00000000000000000E+02   7.10000000000000000E+02   7.20000000000000000E+02   7.30000000000000000E+02   7.40000000000000000E+02
             7.50000000000000000E+02   7.60000000000000000E+02   7.70000000000000000E+02   7.80000000000000000E+02   7.90000000000000000E+02
             8.00000000000000000E+02   8.10000000000000000E+02   8.20000000000000000E+02   8.30000000000000000E+02   8.40000000000000000E+02
             8.50000000000000000E+02   8.60000000000000000E+02   8.70000000000000000E+02   8.80000000000000000E+02   8.90000000000000000E+02
             9.00000000000000000E+02   9.10000000000000000E+02   9.20000000000000000E+02   9.30000000000000000E+02   9.40000000000000000E+02
             9.50000000000000000E+02   9.60000000000000000E+02   9.70000000000000000E+02   9.80000000000000000E+02   9.90000000000000000E+02
             1.00000000000000000E+03   1.01000000000000000E+03   1.02000000000000000E+03   1.03000000000000000E+03   1.04000000000000000E+03
             1.05000000000000000E+03   1.06000000000000000E+03   1.07000000000000000E+03   1.08000000000000000E+03   1.09000000000000000E+03
             1.10000000000000000E+03   1.11000000000000000E+03   1.12000000000000000E+03   1.13000000000000000E+03   1.14000000000000000E+03
             1.15000000000000000E+03   1.16000000000000000E+03   1.17000000000000000E+03   1.18000000000000000E+03   1.19000000000000000E+03
             1.20000000000000000E+03   1.21000000000000000E+03   1.22000000000000000E+03   1.23000000000000000E+03   1.24000000000000000E+03
             1.25000000000000000E+03   1.26000000000000000E+03   1.27000000000000000E+03   1.28000000000000000E+03   1.29000000000000000E+03
             1.30000000000000000E+03   1.31000000000000000E+03   1.32000000000000000E+03   1.33000000000000000E+03   1.34000000000000000E+03
             1.35000000000000000E+03
 ETA=   43   7.00000000000000000E+02   7.10000000000000000E+02   7.20000000000000000E+02   7.30000000000000000E+02   7.40000000000000000E+02
             7.50000000000000000E+02   7.60000000000000000E+02   7.70000000000000000E+02   7.80000000000000000E+02   7.90000000000000000E+02
             8.00000000000000000E+02   8.10000000000000000E+02   8.20000000000000000E+02   8.30000000000000000E+02   8.40000000000000000E+02
             8.50000000000000000E+02   8.60000000000000000E+02   8.70000000000000000E+02   8.80000000000000000E+02   8.90000000000000000E+02
             9.00000000000000000E+02   9.10000000000000000E+02   9.20000000000000000E+02   9.30000000000000000E+02   9.40000000000000000E+02
             9.50000000000000000E+02   9.60000000000000000E+02   9.70000000000000000E+02   9.80000000000000000E+02   9.90000000000000000E+02
             1.00000000000000000E+03   1.01000000000000000E+03   1.02000000000000000E+03   1.03000000000000000E+03   1.04000000000000000E+03
             1.05000000000000000E+03   1.06000000000000000E+03   1.07000000000000000E+03   1.08000000000000000E+03   1.09000000000000000E+03
             1.10000000000000000E+03   1.11000000000000000E+03   1.12000000000000000E+03   1.13000000000000000E+03   1.14000000000000000E+03
[...]
             1.64000000000000000E+03   1.64000000000000000E+03   1.64000000000000000E+03   1.64000000000000000E+03   1.64000000000000000E+03
             1.64000000000000000E+03   1.64000000000000000E+03   1.64000000000000000E+03   1.64000000000000000E+03   1.64000000000000000E+03
             1.64000000000000000E+03   1.64000000000000000E+03   1.64000000000000000E+03   1.64000000000000000E+03   1.64000000000000000E+03
             1.64000000000000000E+03   1.64000000000000000E+03   1.64000000000000000E+03   1.64000000000000000E+03   1.64000000000000000E+03
             1.64000000000000000E+03   1.64000000000000000E+03   1.64000000000000000E+03   1.64000000000000000E+03   1.64000000000000000E+03
             1.64000000000000000E+03   1.64000000000000000E+03   1.64000000000000000E+03   1.64000000000000000E+03   1.64000000000000000E+03
             1.64000000000000000E+03   1.64000000000000000E+03   1.64000000000000000E+03   1.64000000000000000E+03   1.64000000000000000E+03
             1.64000000000000000E+03   1.64000000000000000E+03   1.64000000000000000E+03   1.64000000000000000E+03   1.64000000000000000E+03
             1.64000000000000000E+03
 ETA=   66   1.66000000000000000E+03   1.66000000000000000E+03   1.66000000000000000E+03   1.66000000000000000E+03   1.66000000000000000E+03
             1.66000000000000000E+03   1.66000000000000000E+03   1.66000000000000000E+03   1.66000000000000000E+03   1.66000000000000000E+03
             1.66000000000000000E+03   1.66000000000000000E+03   1.66000000000000000E+03   1.66000000000000000E+03   1.66000000000000000E+03
             1.66000000000000000E+03   1.66000000000000000E+03   1.66000000000000000E+03   1.66000000000000000E+03   1.66000000000000000E+03
             1.66000000000000000E+03   1.66000000000000000E+03   1.66000000000000000E+03   1.66000000000000000E+03   1.66000000000000000E+03
             1.66000000000000000E+03   1.66000000000000000E+03   1.66000000000000000E+03   1.66000000000000000E+03   1.66000000000000000E+03
             1.66000000000000000E+03   1.66000000000000000E+03   1.66000000000000000E+03   1.66000000000000000E+03   1.66000000000000000E+03
             1.66000000000000000E+03   1.66000000000000000E+03   1.66000000000000000E+03   1.66000000000000000E+03   1.66000000000000000E+03
             1.66000000000000000E+03   1.66000000000000000E+03   1.66000000000000000E+03   1.66000000000000000E+03   1.66000000000000000E+03
             1.66000000000000000E+03   1.66000000000000000E+03   1.66000000000000000E+03   1.66000000000000000E+03   1.66000000000000000E+03
             1.66000000000000000E+03   1.66000000000000000E+03   1.66000000000000000E+03   1.66000000000000000E+03   1.66000000000000000E+03
             1.66000000000000000E+03   1.66000000000000000E+03   1.66000000000000000E+03   1.66000000000000000E+03   1.66000000000000000E+03
             1.66000000000000000E+03   1.66000000000000000E+03   1.66000000000000000E+03   1.66000000000000000E+03   1.66000000000000000E+03
             1.66000000000000000E+03
 ETA=   67   1.68000000000000000E+03   1.68000000000000000E+03   1.68000000000000000E+03   1.68000000000000000E+03   1.68000000000000000E+03
             1.68000000000000000E+03   1.68000000000000000E+03   1.68000000000000000E+03   1.68000000000000000E+03   1.68000000000000000E+03
             1.68000000000000000E+03   1.68000000000000000E+03   1.68000000000000000E+03   1.68000000000000000E+03   1.68000000000000000E+03
             1.68000000000000000E+03   1.68000000000000000E+03   1.68000000000000000E+03   1.68000000000000000E+03   1.68000000000000000E+03
             1.68000000000000000E+03   1.68000000000000000E+03   1.68000000000000000E+03   1.68000000000000000E+03   1.68000000000000000E+03
             1.68000000000000000E+03   1.68000000000000000E+03   1.68000000000000000E+03   1.68000000000000000E+03   1.68000000000000000E+03
             1.68000000000000000E+03   1.68000000000000000E+03   1.68000000000000000E+03   1.68000000000000000E+03   1.68000000000000000E+03
             1.68000000000000000E+03   1.68000000000000000E+03   1.68000000000000000E+03   1.68000000000000000E+03   1.68000000000000000E+03
             1.68000000000000000E+03   1.68000000000000000E+03   1.68000000000000000E+03   1.68000000000000000E+03   1.68000000000000000E+03
             1.68000000000000000E+03   1.68000000000000000E+03   1.68000000000000000E+03   1.68000000000000000E+03   1.68000000000000000E+03
             1.68000000000000000E+03   1.68000000000000000E+03   1.68000000000000000E+03   1.68000000000000000E+03   1.68000000000000000E+03
             1.68000000000000000E+03   1.68000000000000000E+03   1.68000000000000000E+03   1.68000000000000000E+03   1.68000000000000000E+03
             1.68000000000000000E+03   1.68000000000000000E+03   1.68000000000000000E+03   1.68000000000000000E+03   1.68000000000000000E+03
             1.68000000000000000E+03
 ETA=   68   1.70000000000000000E+03   1.70000000000000000E+03   1.70000000000000000E+03   1.70000000000000000E+03   1.70000000000000000E+03
             1.70000000000000000E+03   1.70000000000000000E+03   1.70000000000000000E+03   1.70000000000000000E+03   1.70000000000000000E+03
             1.70000000000000000E+03   1.70000000000000000E+03   1.70000000000000000E+03   1.70000000000000000E+03   1.70000000000000000E+03
             1.70000000000000000E+03   1.70000000000000000E+03   1.70000000000000000E+03   1.70000000000000000E+03   1.70000000000000000E+03
             1.70000000000000000E+03   1.70000000000000000E+03   1.70000000000000000E+03   1.70000000000000000E+03   1.70000000000000000E+03
             1.70000000000000000E+03   1.70000000000000000E+03   1.70000000000000000E+03   1.70000000000000000E+03   1.70000000000000000E+03
             1.70000000000000000E+03   1.70000000000000000E+03   1.70000000000000000E+03   1.70000000000000000E+03   1.70000000000000000E+03
             1.70000000000000000E+03   1.70000000000000000E+03   1.70000000000000000E+03   1.70000000000000000E+03   1.70000000000000000E+03
             1.70000000000000000E+03   1.70000000000000000E+03   1.70000000000000000E+03   1.70000000000000000E+03   1.70000000000000000E+03
             1.70000000000000000E+03   1.70000000000000000E+03   1.70000000000000000E+03   1.70000000000000000E+03   1.70000000000000000E+03
             1.70000000000000000E+03   1.70000000000000000E+03   1.70000000000000000E+03   1.70000000000000000E+03   1.70000000000000000E+03
             1.70000000000000000E+03   1.70000000000000000E+03   1.70000000000000000E+03   1.70000000000000000E+03   1.70000000000000000E+03
             1.70000000000000000E+03   1.70000000000000000E+03   1.70000000000000000E+03   1.70000000000000000E+03   1.70000000000000000E+03
             1.70000000000000000E+03
 ETA=   69   1.72000000000000000E+03   1.72000000000000000E+03   1.72000000000000000E+03   1.72000000000000000E+03   1.72000000000000000E+03
             1.72000000000000000E+03   1.72000000000000000E+03   1.72000000000000000E+03   1.72000000000000000E+03   1.72000000000000000E+03
             1.72000000000000000E+03   1.72000000000000000E+03   1.72000000000000000E+03   1.72000000000000000E+03   1.72000000000000000E+03
             1.72000000000000000E+03   1.72000000000000000E+03   1.72000000000000000E+03   1.72000000000000000E+03   1.72000000000000000E+03
             1.72000000000000000E+03   1.72000000000000000E+03   1.72000000000000000E+03   1.72000000000000000E+03   1.72000000000000000E+03
             1.72000000000000000E+03   1.72000000000000000E+03   1.72000000000000000E+03   1.72000000000000000E+03   1.72000000000000000E+03
             1.72000000000000000E+03   1.72000000000000000E+03   1.72000000000000000E+03   1.72000000000000000E+03   1.72000000000000000E+03
             1.72000000000000000E+03   1.72000000000000000E+03   1.72000000000000000E+03   1.72000000000000000E+03   1.72000000000000000E+03
             1.72000000000000000E+03   1.72000000000000000E+03   1.72000000000000000E+03   1.72000000000000000E+03   1.72000000000000000E+03
             1.72000000000000000E+03   1.72000000000000000E+03   1.72000000000000000E+03   1.72000000000000000E+03   1.72000000000000000E+03
             1.72000000000000000E+03   1.72000000000000000E+03   1.72000000000000000E+03   1.72000000000000000E+03   1.72000000000000000E+03
             1.72000000000000000E+03   1.72000000000000000E+03   1.72000000000000000E+03   1.72000000000000000E+03   1.72000000000000000E+03
             1.72000000000000000E+03   1.72000000000000000E+03   1.72000000000000000E+03   1.72000000000000000E+03   1.72000000000000000E+03
             1.72000000000000000E+03
 ETA=   70   1.74000000000000000E+03   1.74000000000000000E+03   1.74000000000000000E+03   1.74000000000000000E+03   1.74000000000000000E+03
             1.74000000000000000E+03   1.74000000000000000E+03   1.74000000000000000E+03   1.74000000000000000E+03   1.74000000000000000E+03
             1.74000000000000000E+03   1.74000000000000000E+03   1.74000000000000000E+03   1.74000000000000000E+03   1.74000000000000000E+03
             1.74000000000000000E+03   1.74000000000000000E+03   1.74000000000000000E+03   1.74000000000000000E+03   1.74000000000000000E+03
             1.74000000000000000E+03   1.74000000000000000E+03   1.74000000000000000E+03   1.74000000000000000E+03   1.74000000000000000E+03
             1.74000000000000000E+03   1.74000000000000000E+03   1.74000000000000000E+03   1.74000000000000000E+03   1.74000000000000000E+03
             1.74000000000000000E+03   1.74000000000000000E+03   1.74000000000000000E+03   1.74000000000000000E+03   1.74000000000000000E+03
             1.74000000000000000E+03   1.74000000000000000E+03   1.74000000000000000E+03   1.74000000000000000E+03   1.74000000000000000E+03
             1.74000000000000000E+03   1.74000000000000000E+03   1.74000000000000000E+03   1.74000000000000000E+03   1.74000000000000000E+03
             1.74000000000000000E+03   1.74000000000000000E+03   1.74000000000000000E+03   1.74000000000000000E+03   1.74000000000000000E+03
             1.74000000000000000E+03   1.74000000000000000E+03   1.74000000000000000E+03   1.74000000000000000E+03   1.74000000000000000E+03
             1.74000000000000000E+03   1.74000000000000000E+03   1.74000000000000000E+03   1.74000000000000000E+03   1.74000000000000000E+03
             1.74000000000000000E+03   1.74000000000000000E+03   1.74000000000000000E+03   1.74000000000000000E+03   1.74000000000000000E+03
             1.74000000000000000E+03
 ETA=   71   1.76000000000000000E+03   1.76000000000000000E+03   1.76000000000000000E+03   1.76000000000000000E+03   1.76000000000000000E+03
             1.76000000000000000E+03   1.76000000000000000E+03   1.76000000000000000E+03   1.76000000000000000E+03   1.76000000000000000E+03
             1.76000000000000000E+03   1.76000000000000000E+03   1.76000000000000000E+03   1.76000000000000000E+03   1.76000000000000000E+03
             1.76000000000000000E+03   1.76000000000000000E+03   1.76000000000000000E+03   1.76000000000000000E+03   1.76000000000000000E+03
             1.76000000000000000E+03   1.76000000000000000E+03   1.76000000000000000E+03   1.76000000000000000E+03   1.76000000000000000E+03
             1.76000000000000000E+03   1.76000000000000000E+03   1.76000000000000000E+03   1.76000000000000000E+03   1.76000000000000000E+03
             1.76000000000000000E+03   1.76000000000000000E+03   1.76000000000000000E+03   1.76000000000000000E+03   1.76000000000000000E+03
             1.76000000000000000E+03   1.76000000000000000E+03   1.76000000000000000E+03   1.76000000000000000E+03   1.76000000000000000E+03
             1.76000000000000000E+03   1.76000000000000000E+03   1.76000000000000000E+03   1.76000000000000000E+03   1.76000000000000000E+03
             1.76000000000000000E+03   1.76000000000000000E+03   1.76000000000000000E+03   1.76000000000000000E+03   1.76000000000000000E+03
             1.76000000000000000E+03   1.76000000000000000E+03   1.76000000000000000E+03   1.76000000000000000E+03   1.76000000000000000E+03
             1.76000000000000000E+03   1.76000000000000000E+03   1.76000000000000000E+03   1.76000000000000000E+03   1.76000000000000000E+03
             1.76000000000000000E+03   1.76000000000000000E+03   1.76000000000000000E+03   1.76000000000000000E+03   1.76000000000000000E+03
             1.76000000000000000E+03
 ETA=   72   1.78000000000000000E+03   1.78000000000000000E+03   1.78000000000000000E+03   1.78000000000000000E+03   1.78000000000000000E+03
             1.78000000000000000E+03   1.78000000000000000E+03   1.78000000000000000E+03   1.78000000000000000E+03   1.78000000000000000E+03
             1.78000000000000000E+03   1.78000000000000000E+03   1.78000000000000000E+03   1.78000000000000000E+03   1.78000000000000000E+03
             1.78000000000000000E+03   1.78000000000000000E+03   1.78000000000000000E+03   1.78000000000000000E+03   1.78000000000000000E+03
             1.78000000000000000E+03   1.78000000000000000E+03   1.78000000000000000E+03   1.78000000000000000E+03   1.78000000000000000E+03
             1.78000000000000000E+03   1.78000000000000000E+03   1.78000000000000000E+03   1.78000000000000000E+03   1.78000000000000000E+03
             1.78000000000000000E+03   1.78000000000000000E+03   1.78000000000000000E+03   1.78000000000000000E+03   1.78000000000000000E+03
             1.78000000000000000E+03   1.78000000000000000E+03   1.78000000000000000E+03   1.78000000000000000E+03   1.78000000000000000E+03
             1.78000000000000000E+03   1.78000000000000000E+03   1.78000000000000000E+03   1.78000000000000000E+03   1.78000000000000000E+03
             1.78000000000000000E+03   1.78000000000000000E+03   1.78000000000000000E+03   1.78000000000000000E+03   1.78000000000000000E+03
             1.78000000000000000E+03   1.78000000000000000E+03   1.78000000000000000E+03   1.78000000000000000E+03   1.78000000000000000E+03
             1.78000000000000000E+03   1.78000000000000000E+03   1.78000000000000000E+03   1.78000000000000000E+03   1.78000000000000000E+03
             1.78000000000000000E+03   1.78000000000000000E+03   1.78000000000000000E+03   1.78000000000000000E+03   1.78000000000000000E+03
             1.78000000000000000E+03
 ETA=   73   1.80000000000000000E+03   1.80000000000000000E+03   1.80000000000000000E+03   1.80000000000000000E+03   1.80000000000000000E+03
             1.80000000000000000E+03   1.80000000000000000E+03   1.80000000000000000E+03   1.80000000000000000E+03   1.80000000000000000E+03
             1.80000000000000000E+03   1.80000000000000000E+03   1.80000000000000000E+03   1.80000000000000000E+03   1.80000000000000000E+03
             1.80000000000000000E+03   1.80000000000000000E+03   1.80000000000000000E+03   1.80000000000000000E+03   1.80000000000000000E+03
             1.80000000000000000E+03   1.80000000000000000E+03   1.80000000000000000E+03   1.80000000000000000E+03   1.80000000000000000E+03
             1.80000000000000000E+03   1.80000000000000000E+03   1.80000000000000000E+03   1.80000000000000000E+03   1.80000000000000000E+03
             1.80000000000000000E+03   1.80000000000000000E+03   1.80000000000000000E+03   1.80000000000000000E+03   1.80000000000000000E+03
             1.80000000000000000E+03   1.80000000000000000E+03   1.80000000000000000E+03   1.80000000000000000E+03   1.80000000000000000E+03
             1.80000000000000000E+03   1.80000000000000000E+03   1.80000000000000000E+03   1.80000000000000000E+03   1.80000000000000000E+03
             1.80000000000000000E+03   1.80000000000000000E+03   1.80000000000000000E+03   1.80000000000000000E+03   1.80000000000000000E+03
             1.80000000000000000E+03   1.80000000000000000E+03   1.80000000000000000E+03   1.80000000000000000E+03   1.80000000000000000E+03
             1.80000000000000000E+03   1.80000000000000000E+03   1.80000000000000000E+03   1.80000000000000000E+03   1.80000000000000000E+03
             1.80000000000000000E+03   1.80000000000000000E+03   1.80000000000000000E+03   1.80000000000000000E+03   1.80000000000000000E+03
             1.80000000000000000E+03
 ETA=   74   1.82000000000000000E+03   1.82000000000000000E+03   1.82000000000000000E+03   1.82000000000000000E+03   1.82000000000000000E+03
             1.82000000000000000E+03   1.82000000000000000E+03   1.82000000000000000E+03   1.82000000000000000E+03   1.82000000000000000E+03
             1.82000000000000000E+03   1.82000000000000000E+03   1.82000000000000000E+03   1.82000000000000000E+03   1.82000000000000000E+03
             1.82000000000000000E+03   1.82000000000000000E+03   1.82000000000000000E+03   1.82000000000000000E+03   1.82000000000000000E+03
             1.82000000000000000E+03   1.82000000000000000E+03   1.82000000000000000E+03   1.82000000000000000E+03   1.82000000000000000E+03
             1.82000000000000000E+03   1.82000000000000000E+03   1.82000000000000000E+03   1.82000000000000000E+03   1.82000000000000000E+03
             1.82000000000000000E+03   1.82000000000000000E+03   1.82000000000000000E+03   1.82000000000000000E+03   1.82000000000000000E+03
             1.82000000000000000E+03   1.82000000000000000E+03   1.82000000000000000E+03   1.82000000000000000E+03   1.82000000000000000E+03
             1.82000000000000000E+03   1.82000000000000000E+03   1.82000000000000000E+03   1.82000000000000000E+03   1.82000000000000000E+03
             1.82000000000000000E+03   1.82000000000000000E+03   1.82000000000000000E+03   1.82000000000000000E+03   1.82000000000000000E+03
             1.82000000000000000E+03   1.82000000000000000E+03   1.82000000000000000E+03   1.82000000000000000E+03   1.82000000000000000E+03
             1.82000000000000000E+03   1.82000000000000000E+03   1.82000000000000000E+03   1.82000000000000000E+03   1.82000000000000000E+03
             1.82000000000000000E+03   1.82000000000000000E+03   1.82000000000000000E+03   1.82000000000000000E+03   1.82000000000000000E+03
             1.82000000000000000E+03
 ETA=   75   1.84000000000000000E+03   1.84000000000000000E+03   1.84000000000000000E+03   1.84000000000000000E+03   1.84000000000000000E+03
             1.84000000000000000E+03   1.84000000000000000E+03   1.84000000000000000E+03   1.84000000000000000E+03   1.84000000000000000E+03
             1.84000000000000000E+03   1.84000000000000000E+03   1.84000000000000000E+03   1.84000000000000000E+03   1.84000000000000000E+03
             1.84000000000000000E+03   1.84000000000000000E+03   1.84000000000000000E+03   1.84000000000000000E+03   1.84000000000000000E+03
             1.84000000000000000E+03   1.84000000000000000E+03   1.84000000000000000E+03   1.84000000000000000E+03   1.84000000000000000E+03
             1.84000000000000000E+03   1.84000000000000000E+03   1.84000000000000000E+03   1.84000000000000000E+03   1.84000000000000000E+03
             1.84000000000000000E+03   1.84000000000000000E+03   1.84000000000000000E+03   1.84000000000000000E+03   1.84000000000000000E+03
             1.84000000000000000E+03   1.84000000000000000E+03   1.84000000000000000E+03   1.84000000000000000E+03   1.84000000000000000E+03
             1.84000000000000000E+03   1.84000000000000000E+03   1.84000000000000000E+03   1.84000000000000000E+03   1.84000000000000000E+03
             1.84000000000000000E+03   1.84000000000000000E+03   1.84000000000000000E+03   1.84000000000000000E+03   1.84000000000000000E+03
             1.84000000000000000E+03   1.84000000000000000E+03   1.84000000000000000E+03   1.84000000000000000E+03   1.84000000000000000E+03
             1.84000000000000000E+03   1.84000000000000000E+03   1.84000000000000000E+03   1.84000000000000000E+03   1.84000000000000000E+03
             1.84000000000000000E+03   1.84000000000000000E+03   1.84000000000000000E+03   1.84000000000000000E+03   1.84000000000000000E+03
             1.84000000000000000E+03
